<?xml version="1.0" encoding="UTF-8"?>

<!-- generated on 2021-10-29 16:31:20 by Eclipse SUMO duarouter Version 1.10.0
<configuration xmlns:xsi="http://www.w3.org/2001/XMLSchema-instance" xsi:noNamespaceSchemaLocation="http://sumo.dlr.de/xsd/duarouterConfiguration.xsd">

    <input>
        <net-file value="osm.net.xml"/>
        <route-files value="osm.passenger.trips.xml"/>
    </input>

    <output>
        <output-file value="osm.passenger.trips.xml.tmp"/>
        <write-trips value="true"/>
    </output>

    <time>
        <begin value="0"/>
        <end value="3600"/>
    </time>

    <report>
        <no-warnings value="true"/>
        <ignore-errors value="true"/>
        <no-step-log value="true"/>
    </report>

</configuration>
-->

<routes xmlns:xsi="http://www.w3.org/2001/XMLSchema-instance" xsi:noNamespaceSchemaLocation="http://sumo.dlr.de/xsd/routes_file.xsd">
    <vType id="veh_passenger" vClass="passenger"/>
    <trip id="veh0" type="veh_passenger" depart="0.00" departLane="best" from="220536408#3" to="-220285712#8"/>
    <trip id="veh2" type="veh_passenger" depart="0.52" departLane="best" from="611398284#0" to="732572829#0"/>
    <trip id="veh3" type="veh_passenger" depart="0.79" departLane="best" departSpeed="max" from="732832469" to="-220959833#1"/>
    <trip id="veh4" type="veh_passenger" depart="1.05" departLane="best" from="-732856087" to="-220285719#2"/>
    <trip id="veh5" type="veh_passenger" depart="1.31" departLane="best" departSpeed="max" from="-732572825#1" to="220959809#2"/>
    <trip id="veh6" type="veh_passenger" depart="1.57" departLane="best" from="-220285719#4" to="-732572866#1"/>
    <trip id="veh7" type="veh_passenger" depart="1.84" departLane="best" from="220888468" to="220959939#5"/>
    <trip id="veh8" type="veh_passenger" depart="2.10" departLane="best" departSpeed="max" from="-732572829#1" to="482092794#3"/>
    <trip id="veh9" type="veh_passenger" depart="2.36" departLane="best" departSpeed="max" from="732574221#0" to="-191453131#4"/>
    <trip id="veh10" type="veh_passenger" depart="2.62" departLane="best" from="732574214#1" to="732572858#2"/>
    <trip id="veh11" type="veh_passenger" depart="2.89" departLane="best" departSpeed="max" from="-732598421" to="-704147950#4"/>
    <trip id="veh12" type="veh_passenger" depart="3.15" departLane="best" departSpeed="max" from="755748702" to="-732985492"/>
    <trip id="veh13" type="veh_passenger" depart="3.41" departLane="best" from="-220959838#1" to="-220959912#0"/>
    <trip id="veh14" type="veh_passenger" depart="3.67" departLane="best" from="732598402#1" to="545736284"/>
    <trip id="veh17" type="veh_passenger" depart="4.46" departLane="best" from="-732830913#1" to="220959949"/>
    <trip id="veh18" type="veh_passenger" depart="4.72" departLane="best" departSpeed="max" from="732597269#0" to="611398282"/>
    <trip id="veh20" type="veh_passenger" depart="5.25" departLane="best" from="307329900#0" to="-220476156"/>
    <trip id="veh21" type="veh_passenger" depart="5.51" departLane="best" departSpeed="max" from="-732572839" to="-732832463"/>
    <trip id="veh22" type="veh_passenger" depart="5.77" departLane="best" from="-220888371#0" to="-732597281#0"/>
    <trip id="veh23" type="veh_passenger" depart="6.03" departLane="best" departSpeed="max" from="-220959910" to="-732830938#2"/>
    <trip id="veh24" type="veh_passenger" depart="6.30" departLane="best" from="220536404#0" to="-755750537#0"/>
    <trip id="veh25" type="veh_passenger" depart="6.56" departLane="best" departSpeed="max" from="-732624624" to="-732574225"/>
    <trip id="veh26" type="veh_passenger" depart="6.82" departLane="best" departSpeed="max" from="-732574229" to="732987939"/>
    <trip id="veh27" type="veh_passenger" depart="7.08" departLane="best" from="220888371#1" to="59740755#6"/>
    <trip id="veh29" type="veh_passenger" depart="7.61" departLane="best" departSpeed="max" from="-544620987#2" to="-94800093#8"/>
    <trip id="veh30" type="veh_passenger" depart="7.87" departLane="best" from="972222498#4" to="704147961#9"/>
    <trip id="veh31" type="veh_passenger" depart="8.13" departLane="best" from="220285668#2" to="732572838#1"/>
    <trip id="veh32" type="veh_passenger" depart="8.40" departLane="best" departSpeed="max" from="732598389" to="732597289"/>
    <trip id="veh33" type="veh_passenger" depart="8.66" departLane="best" from="-732572842#0" to="-220285724#2"/>
    <trip id="veh34" type="veh_passenger" depart="8.92" departLane="best" departSpeed="max" from="-732597281#2" to="-732624627#2"/>
    <trip id="veh35" type="veh_passenger" depart="9.18" departLane="best" departSpeed="max" from="-707247683#1" to="732987947"/>
    <trip id="veh36" type="veh_passenger" depart="9.45" departLane="best" departSpeed="max" from="732830934#0" to="-732932568"/>
    <trip id="veh37" type="veh_passenger" depart="9.71" departLane="best" from="220959823#3" to="191453128#1"/>
    <trip id="veh38" type="veh_passenger" depart="9.97" departLane="best" departSpeed="max" from="732932568" to="220476168#1"/>
    <trip id="veh39" type="veh_passenger" depart="10.23" departLane="best" departSpeed="max" from="-732574222#4" to="-732598402#0"/>
    <trip id="veh41" type="veh_passenger" depart="10.76" departLane="best" from="220285719#0" to="732932564#5"/>
    <trip id="veh43" type="veh_passenger" depart="11.28" departLane="best" from="980722879#0" to="220959817"/>
    <trip id="veh44" type="veh_passenger" depart="11.54" departLane="best" from="-220959833#2" to="-220476159#3"/>
    <trip id="veh45" type="veh_passenger" depart="11.81" departLane="best" departSpeed="max" from="-220959924" to="688874077"/>
    <trip id="veh46" type="veh_passenger" depart="12.07" departLane="best" departSpeed="max" from="732572846" to="220285698#1"/>
    <trip id="veh47" type="veh_passenger" depart="12.33" departLane="best" from="-220536391#1" to="-972222498#1"/>
    <trip id="veh48" type="veh_passenger" depart="12.59" departLane="best" from="980722078" to="220959915#3"/>
    <trip id="veh49" type="veh_passenger" depart="12.86" departLane="best" from="778936907#8" to="732830948"/>
    <trip id="veh50" type="veh_passenger" depart="13.12" departLane="best" from="-220285690#15" to="732574222#4"/>
    <trip id="veh51" type="veh_passenger" depart="13.38" departLane="best" from="220959939#6" to="220959927#0"/>
    <trip id="veh52" type="veh_passenger" depart="13.64" departLane="best" departSpeed="max" from="-732574229" to="704147962#1"/>
    <trip id="veh53" type="veh_passenger" depart="13.91" departLane="best" departSpeed="max" from="-732958961" to="755749144"/>
    <trip id="veh55" type="veh_passenger" depart="14.43" departLane="best" departSpeed="max" from="-755748205" to="-707247684#2"/>
    <trip id="veh56" type="veh_passenger" depart="14.69" departLane="best" departSpeed="max" from="732932564#0" to="732832472"/>
    <trip id="veh57" type="veh_passenger" depart="14.96" departLane="best" departSpeed="max" from="-732597262" to="704147961#9"/>
    <trip id="veh58" type="veh_passenger" depart="15.22" departLane="best" from="220476168#0" to="-688874072#3"/>
    <trip id="veh59" type="veh_passenger" depart="15.48" departLane="best" from="704521313#3" to="220959933"/>
    <trip id="veh60" type="veh_passenger" depart="15.74" departLane="best" departSpeed="max" from="707313619" to="220959916#0"/>
    <trip id="veh61" type="veh_passenger" depart="16.00" departLane="best" from="-127482092#3" to="-732958975"/>
    <trip id="veh63" type="veh_passenger" depart="16.53" departLane="best" from="732830939#0" to="732830913#1"/>
    <trip id="veh64" type="veh_passenger" depart="16.79" departLane="best" departSpeed="max" from="-732597271" to="-220536377#1"/>
    <trip id="veh65" type="veh_passenger" depart="17.05" departLane="best" from="732830938#2" to="755748198"/>
    <trip id="veh66" type="veh_passenger" depart="17.32" departLane="best" from="-220959816#1" to="220536396"/>
    <trip id="veh67" type="veh_passenger" depart="17.58" departLane="best" from="-220536406#1" to="732597270"/>
    <trip id="veh68" type="veh_passenger" depart="17.84" departLane="best" from="704524428#3" to="-371878363#1"/>
    <trip id="veh69" type="veh_passenger" depart="18.10" departLane="best" departSpeed="max" from="-732985493" to="220959943#1"/>
    <trip id="veh70" type="veh_passenger" depart="18.37" departLane="best" departSpeed="max" from="-732574222#4" to="732832475"/>
    <trip id="veh71" type="veh_passenger" depart="18.63" departLane="best" departSpeed="max" from="-732932518" to="-732574227"/>
    <trip id="veh73" type="veh_passenger" depart="19.15" departLane="best" departSpeed="max" from="-704521313#4" to="-732932554"/>
    <trip id="veh74" type="veh_passenger" depart="19.42" departLane="best" departSpeed="max" from="980722076" to="704521313#0"/>
    <trip id="veh75" type="veh_passenger" depart="19.68" departLane="best" departSpeed="max" from="-732932548#1" to="220959838#1"/>
    <trip id="veh76" type="veh_passenger" depart="19.94" departLane="best" departSpeed="max" from="-220959941" to="-732597252#0"/>
    <trip id="veh77" type="veh_passenger" depart="20.20" departLane="best" departSpeed="max" from="-732598415#1" to="482092794#20"/>
    <trip id="veh79" type="veh_passenger" depart="20.73" departLane="best" from="-220536408#0" to="704147950#3"/>
    <trip id="veh80" type="veh_passenger" depart="20.99" departLane="best" from="-732572841" to="732958960#1"/>
    <trip id="veh81" type="veh_passenger" depart="21.25" departLane="best" departSpeed="max" from="732624611#0" to="-220536407#4"/>
    <trip id="veh82" type="veh_passenger" depart="21.51" departLane="best" from="-732572852" to="707313626"/>
    <trip id="veh83" type="veh_passenger" depart="21.78" departLane="best" departSpeed="max" from="-708204876#2" to="-371878374#0"/>
    <trip id="veh85" type="veh_passenger" depart="22.30" departLane="best" departSpeed="max" from="-732985486#1" to="732598396#1"/>
    <trip id="veh86" type="veh_passenger" depart="22.56" departLane="best" departSpeed="max" from="732574215" to="-732572852"/>
    <trip id="veh87" type="veh_passenger" depart="22.83" departLane="best" departSpeed="max" from="-220959868" to="220285712#9"/>
    <trip id="veh88" type="veh_passenger" depart="23.09" departLane="best" from="-732932520" to="220536327#6"/>
    <trip id="veh89" type="veh_passenger" depart="23.35" departLane="best" from="610262460" to="708205855#2"/>
    <trip id="veh90" type="veh_passenger" depart="23.61" departLane="best" from="967234359" to="-220959914"/>
    <trip id="veh93" type="veh_passenger" depart="24.40" departLane="best" departSpeed="max" from="-704147961#9" to="220401035#1"/>
    <trip id="veh94" type="veh_passenger" depart="24.66" departLane="best" from="-732856087" to="-732830939#0"/>
    <trip id="veh95" type="veh_passenger" depart="24.93" departLane="best" departSpeed="max" from="-732572865#1" to="732985486#1"/>
    <trip id="veh96" type="veh_passenger" depart="25.19" departLane="best" departSpeed="max" from="-732932563" to="732830948"/>
    <trip id="veh97" type="veh_passenger" depart="25.45" departLane="best" from="191453167#1" to="-220476170#0"/>
    <trip id="veh98" type="veh_passenger" depart="25.71" departLane="best" from="gneE1" to="732830919"/>
    <trip id="veh99" type="veh_passenger" depart="25.97" departLane="best" from="778936907#1" to="732985493"/>
    <trip id="veh100" type="veh_passenger" depart="26.24" departLane="best" departSpeed="max" from="732598412" to="-704515411#2"/>
    <trip id="veh101" type="veh_passenger" depart="26.50" departLane="best" departSpeed="max" from="-732987938#3" to="-732591759#1"/>
    <trip id="veh102" type="veh_passenger" depart="26.76" departLane="best" departSpeed="max" from="-732830939#2" to="-220536381#0"/>
    <trip id="veh103" type="veh_passenger" depart="27.02" departLane="best" departSpeed="max" from="-732830914" to="967234359"/>
    <trip id="veh104" type="veh_passenger" depart="27.29" departLane="best" departSpeed="max" from="-732574222#4" to="732598393#1"/>
    <trip id="veh105" type="veh_passenger" depart="27.55" departLane="best" from="-732958964" to="220285701#1"/>
    <trip id="veh106" type="veh_passenger" depart="27.81" departLane="best" from="755749142#1" to="980720230#1"/>
    <trip id="veh107" type="veh_passenger" depart="28.07" departLane="best" from="220285666#1" to="732574219"/>
    <trip id="veh108" type="veh_passenger" depart="28.34" departLane="best" from="-482092794#0" to="-732932524"/>
    <trip id="veh109" type="veh_passenger" depart="28.60" departLane="best" from="778936907#0" to="371878363#4"/>
    <trip id="veh111" type="veh_passenger" depart="29.12" departLane="best" departSpeed="max" from="-220536369#1" to="377504290"/>
    <trip id="veh112" type="veh_passenger" depart="29.39" departLane="best" departSpeed="max" from="-755748804" to="732830936"/>
    <trip id="veh113" type="veh_passenger" depart="29.65" departLane="best" departSpeed="max" from="-482092794#20" to="755752096#0"/>
    <trip id="veh114" type="veh_passenger" depart="29.91" departLane="best" from="-220888371#1" to="-732572834"/>
    <trip id="veh115" type="veh_passenger" depart="30.17" departLane="best" from="220401029#28" to="732572825#1"/>
    <trip id="veh116" type="veh_passenger" depart="30.44" departLane="best" departSpeed="max" from="-732572849" to="-220959990#2"/>
    <trip id="veh117" type="veh_passenger" depart="30.70" departLane="best" departSpeed="max" from="732832464" to="-732598402#0"/>
    <trip id="veh118" type="veh_passenger" depart="30.96" departLane="best" from="220401029#26" to="611398285"/>
    <trip id="veh119" type="veh_passenger" depart="31.22" departLane="best" departSpeed="max" from="-732832475" to="371878381#3"/>
    <trip id="veh120" type="veh_passenger" depart="31.48" departLane="best" from="-778936907#2" to="732987938#0"/>
    <trip id="veh121" type="veh_passenger" depart="31.75" departLane="best" from="-704524429#1" to="732574217"/>
    <trip id="veh122" type="veh_passenger" depart="32.01" departLane="best" departSpeed="max" from="-732572854" to="191453131#1"/>
    <trip id="veh123" type="veh_passenger" depart="32.27" departLane="best" departSpeed="max" from="220959914" to="-732932532"/>
    <trip id="veh124" type="veh_passenger" depart="32.53" departLane="best" departSpeed="max" from="-732597281#2" to="732597262"/>
    <trip id="veh125" type="veh_passenger" depart="32.80" departLane="best" from="-220536409#1" to="220476167"/>
    <trip id="veh126" type="veh_passenger" depart="33.06" departLane="best" from="980722880#0" to="980722078"/>
    <trip id="veh127" type="veh_passenger" depart="33.32" departLane="best" departSpeed="max" from="-220536409#2" to="-732591759#0"/>
    <trip id="veh128" type="veh_passenger" depart="33.58" departLane="best" departSpeed="max" from="-732574222#4" to="732987934#1"/>
    <trip id="veh129" type="veh_passenger" depart="33.85" departLane="best" departSpeed="max" from="732830944" to="732932523"/>
    <trip id="veh131" type="veh_passenger" depart="34.37" departLane="best" from="732597282#0" to="732572862"/>
    <trip id="veh132" type="veh_passenger" depart="34.63" departLane="best" from="220536324#1" to="967234361#0"/>
    <trip id="veh133" type="veh_passenger" depart="34.90" departLane="best" from="220959816#2" to="-191453150"/>
    <trip id="veh134" type="veh_passenger" depart="35.16" departLane="best" departSpeed="max" from="732591763" to="-732932531"/>
    <trip id="veh135" type="veh_passenger" depart="35.42" departLane="best" from="220959844" to="732987942"/>
    <trip id="veh136" type="veh_passenger" depart="35.68" departLane="best" from="-220959974#0" to="-220959968#0"/>
    <trip id="veh138" type="veh_passenger" depart="36.21" departLane="best" from="544620960#4" to="-732574214#2"/>
    <trip id="veh139" type="veh_passenger" depart="36.47" departLane="best" from="220536399#1" to="-732624619"/>
    <trip id="veh140" type="veh_passenger" depart="36.73" departLane="best" departSpeed="max" from="-732987942" to="732958960#1"/>
    <trip id="veh141" type="veh_passenger" depart="36.99" departLane="best" from="732598399" to="-220959861"/>
    <trip id="veh142" type="veh_passenger" depart="37.26" departLane="best" from="-732932520" to="-732830934#1"/>
    <trip id="veh143" type="veh_passenger" depart="37.52" departLane="best" from="-191453140#1" to="732597284#1"/>
    <trip id="veh144" type="veh_passenger" depart="37.78" departLane="best" from="220536406#2" to="-732624612"/>
    <trip id="veh145" type="veh_passenger" depart="38.04" departLane="best" from="611415895" to="220959949"/>
    <trip id="veh146" type="veh_passenger" depart="38.31" departLane="best" departSpeed="max" from="-732932529" to="-220285669"/>
    <trip id="veh147" type="veh_passenger" depart="38.57" departLane="best" from="-220536411#0" to="732932536"/>
    <trip id="veh148" type="veh_passenger" depart="38.83" departLane="best" from="732932539" to="220959940"/>
    <trip id="veh149" type="veh_passenger" depart="39.09" departLane="best" departSpeed="max" from="732597283" to="371878377"/>
    <trip id="veh150" type="veh_passenger" depart="39.36" departLane="best" from="-371878363#0" to="-307329900#1"/>
    <trip id="veh151" type="veh_passenger" depart="39.62" departLane="best" from="-732597273#0" to="732932567"/>
    <trip id="veh152" type="veh_passenger" depart="39.88" departLane="best" departSpeed="max" from="732572856" to="732830947"/>
    <trip id="veh153" type="veh_passenger" depart="40.14" departLane="best" from="732932531" to="-732574225"/>
    <trip id="veh154" type="veh_passenger" depart="40.41" departLane="best" departSpeed="max" from="-732572865#1" to="-220959920#0"/>
    <trip id="veh155" type="veh_passenger" depart="40.67" departLane="best" from="707313622#1" to="732932537#1"/>
    <trip id="veh156" type="veh_passenger" depart="40.93" departLane="best" from="-732830947" to="611415890#4"/>
    <trip id="veh157" type="veh_passenger" depart="41.19" departLane="best" from="732624625#1" to="859307744#2"/>
    <trip id="veh158" type="veh_passenger" depart="41.45" departLane="best" from="732574222#1" to="732932530"/>
    <trip id="veh159" type="veh_passenger" depart="41.72" departLane="best" from="-220285717#1" to="732597244#4"/>
    <trip id="veh161" type="veh_passenger" depart="42.24" departLane="best" from="732572868#2" to="732830951#1"/>
    <trip id="veh162" type="veh_passenger" depart="42.50" departLane="best" from="732574222#1" to="-732624627#0"/>
    <trip id="veh163" type="veh_passenger" depart="42.77" departLane="best" from="732572832#1" to="-220959943#0"/>
    <trip id="veh164" type="veh_passenger" depart="43.03" departLane="best" from="732830917#1" to="732830942"/>
    <trip id="veh166" type="veh_passenger" depart="43.55" departLane="best" departSpeed="max" from="-732958971" to="-732932540"/>
    <trip id="veh167" type="veh_passenger" depart="43.82" departLane="best" departSpeed="max" from="732572856" to="-732597264#1"/>
    <trip id="veh168" type="veh_passenger" depart="44.08" departLane="best" from="-220285713#2" to="-732572856"/>
    <trip id="veh169" type="veh_passenger" depart="44.34" departLane="best" departSpeed="max" from="-732598390#1" to="732830951#1"/>
    <trip id="veh170" type="veh_passenger" depart="44.60" departLane="best" from="755752097" to="-732830941"/>
    <trip id="veh171" type="veh_passenger" depart="44.87" departLane="best" from="220536410#5" to="191453169#0"/>
    <trip id="veh172" type="veh_passenger" depart="45.13" departLane="best" from="94800093#7" to="220959924"/>
    <trip id="veh174" type="veh_passenger" depart="45.65" departLane="best" from="778936907#5" to="-707247684#2"/>
    <trip id="veh175" type="veh_passenger" depart="45.92" departLane="best" departSpeed="max" from="755750537#0" to="-732624625#1"/>
    <trip id="veh176" type="veh_passenger" depart="46.18" departLane="best" from="-220959920#3" to="220285719#2"/>
    <trip id="veh177" type="veh_passenger" depart="46.44" departLane="best" from="59777955#1" to="-732932564#3"/>
    <trip id="veh178" type="veh_passenger" depart="46.70" departLane="best" departSpeed="max" from="220476160" to="220959823#3"/>
    <trip id="veh179" type="veh_passenger" depart="46.96" departLane="best" departSpeed="max" from="-732830923" to="307329892#1"/>
    <trip id="veh180" type="veh_passenger" depart="47.23" departLane="best" departSpeed="max" from="-732574212#2" to="732572868#2"/>
    <trip id="veh181" type="veh_passenger" depart="47.49" departLane="best" from="-191446779" to="732985493"/>
    <trip id="veh182" type="veh_passenger" depart="47.75" departLane="best" departSpeed="max" from="191446767#0" to="732574221#2"/>
    <trip id="veh183" type="veh_passenger" depart="48.01" departLane="best" from="613459407" to="708204876#0"/>
    <trip id="veh185" type="veh_passenger" depart="48.54" departLane="best" from="220959854#2" to="-732985481#0"/>
    <trip id="veh186" type="veh_passenger" depart="48.80" departLane="best" departSpeed="max" from="-732597278#1" to="732830932"/>
    <trip id="veh187" type="veh_passenger" depart="49.06" departLane="best" from="544634586" to="-732932532"/>
    <trip id="veh188" type="veh_passenger" depart="49.33" departLane="best" departSpeed="max" from="-732597274" to="220285671#3"/>
    <trip id="veh189" type="veh_passenger" depart="49.59" departLane="best" departSpeed="max" from="-732830940" to="-732932520"/>
    <trip id="veh190" type="veh_passenger" depart="49.85" departLane="best" departSpeed="max" from="-220959957#1" to="220285693#0"/>
    <trip id="veh192" type="veh_passenger" depart="50.38" departLane="best" departSpeed="max" from="732932535" to="610266937"/>
    <trip id="veh193" type="veh_passenger" depart="50.64" departLane="best" departSpeed="max" from="-732597265" to="220959942#0"/>
    <trip id="veh194" type="veh_passenger" depart="50.90" departLane="best" from="-127482092#2" to="-732830956"/>
    <trip id="veh195" type="veh_passenger" depart="51.16" departLane="best" from="-732932531" to="371878363#7"/>
    <trip id="veh196" type="veh_passenger" depart="51.43" departLane="best" from="220959822" to="220536326#6"/>
    <trip id="veh197" type="veh_passenger" depart="51.69" departLane="best" from="-732932553" to="-732591759#1"/>
    <trip id="veh198" type="veh_passenger" depart="51.95" departLane="best" departSpeed="max" from="-732985486#1" to="732958953"/>
    <trip id="veh199" type="veh_passenger" depart="52.21" departLane="best" departSpeed="max" from="732572856" to="-704524428#1"/>
    <trip id="veh200" type="veh_passenger" depart="52.47" departLane="best" from="-220959815#3" to="220959833#0"/>
    <trip id="veh201" type="veh_passenger" depart="52.74" departLane="best" from="220536397#1" to="-732985490"/>
    <trip id="veh203" type="veh_passenger" depart="53.26" departLane="best" from="220959915#2" to="-732597252#0"/>
    <trip id="veh204" type="veh_passenger" depart="53.52" departLane="best" from="-704521312#1" to="-220285712#5"/>
    <trip id="veh205" type="veh_passenger" depart="53.79" departLane="best" departSpeed="max" from="-732572860" to="220536357#5"/>
    <trip id="veh206" type="veh_passenger" depart="54.05" departLane="best" departSpeed="max" from="732598412" to="-220536410#0"/>
    <trip id="veh207" type="veh_passenger" depart="54.31" departLane="best" departSpeed="max" from="-732832468" to="704147946#2"/>
    <trip id="veh208" type="veh_passenger" depart="54.57" departLane="best" from="-704147964#2" to="732572855#2"/>
    <trip id="veh209" type="veh_passenger" depart="54.84" departLane="best" departSpeed="max" from="-751974270#2" to="-732598395"/>
    <trip id="veh210" type="veh_passenger" depart="55.10" departLane="best" from="220959824#1" to="-191446780#1"/>
    <trip id="veh211" type="veh_passenger" depart="55.36" departLane="best" from="704147958#0" to="732597281#2"/>
    <trip id="veh212" type="veh_passenger" depart="55.62" departLane="best" from="-220959917#7" to="220285707#2"/>
    <trip id="veh213" type="veh_passenger" depart="55.89" departLane="best" from="-610262461" to="755749149"/>
    <trip id="veh214" type="veh_passenger" depart="56.15" departLane="best" departSpeed="max" from="-755752105" to="-220476168#0"/>
    <trip id="veh215" type="veh_passenger" depart="56.41" departLane="best" departSpeed="max" from="-732572865#1" to="732830932"/>
    <trip id="veh216" type="veh_passenger" depart="56.67" departLane="best" departSpeed="max" from="-732958966" to="732598428"/>
    <trip id="veh217" type="veh_passenger" depart="56.93" departLane="best" from="220959876#1" to="967234362"/>
    <trip id="veh218" type="veh_passenger" depart="57.20" departLane="best" from="220401029#29" to="755748205"/>
    <trip id="veh219" type="veh_passenger" depart="57.46" departLane="best" from="732832467" to="610262465#2"/>
    <trip id="veh220" type="veh_passenger" depart="57.72" departLane="best" from="544621016" to="220959808"/>
    <trip id="veh221" type="veh_passenger" depart="57.98" departLane="best" from="732597273#0" to="220959942#0"/>
    <trip id="veh222" type="veh_passenger" depart="58.25" departLane="best" departSpeed="max" from="732932524" to="732597254#2"/>
    <trip id="veh223" type="veh_passenger" depart="58.51" departLane="best" from="-732985491#0" to="-732598440#0"/>
    <trip id="veh224" type="veh_passenger" depart="58.77" departLane="best" departSpeed="max" from="-732572862" to="704147961#4"/>
    <trip id="veh225" type="veh_passenger" depart="59.03" departLane="best" from="704524428#3" to="220959861"/>
    <trip id="veh226" type="veh_passenger" depart="59.30" departLane="best" from="220536382#1" to="-732830929#0"/>
    <trip id="veh227" type="veh_passenger" depart="59.56" departLane="best" from="-220695226#4" to="-732830955"/>
    <trip id="veh229" type="veh_passenger" depart="60.08" departLane="best" from="191446770" to="-482092794#7"/>
    <trip id="veh230" type="veh_passenger" depart="60.35" departLane="best" departSpeed="max" from="-732572843" to="732572850"/>
    <trip id="veh231" type="veh_passenger" depart="60.61" departLane="best" from="371878363#2" to="-220536396"/>
    <trip id="veh232" type="veh_passenger" depart="60.87" departLane="best" departSpeed="max" from="-732830948" to="220959937"/>
    <trip id="veh233" type="veh_passenger" depart="61.13" departLane="best" from="-732832470" to="-732574221#0"/>
    <trip id="veh234" type="veh_passenger" depart="61.40" departLane="best" departSpeed="max" from="-732856085#1" to="732958960#1"/>
    <trip id="veh235" type="veh_passenger" depart="61.66" departLane="best" departSpeed="max" from="220285718" to="732572854"/>
    <trip id="veh236" type="veh_passenger" depart="61.92" departLane="best" from="732598438#1" to="732597276#1"/>
    <trip id="veh237" type="veh_passenger" depart="62.18" departLane="best" from="-732830916#1" to="-191453131#1"/>
    <trip id="veh238" type="veh_passenger" depart="62.44" departLane="best" departSpeed="max" from="-732598431" to="732597264#2"/>
    <trip id="veh239" type="veh_passenger" depart="62.71" departLane="best" from="732598427#1" to="755749144"/>
    <trip id="veh241" type="veh_passenger" depart="63.23" departLane="best" from="191446785#4" to="545736284"/>
    <trip id="veh243" type="veh_passenger" depart="63.76" departLane="best" departSpeed="max" from="-732932544" to="-220285718"/>
    <trip id="veh244" type="veh_passenger" depart="64.02" departLane="best" departSpeed="max" from="-732598413" to="732572830#1"/>
    <trip id="veh245" type="veh_passenger" depart="64.28" departLane="best" departSpeed="max" from="-732830942" to="-704513870#7"/>
    <trip id="veh246" type="veh_passenger" depart="64.54" departLane="best" departSpeed="max" from="-732958984" to="-307329905#0"/>
    <trip id="veh247" type="veh_passenger" depart="64.81" departLane="best" from="220536354#7" to="-220285715#1"/>
    <trip id="veh248" type="veh_passenger" depart="65.07" departLane="best" departSpeed="max" from="-732830932" to="220959975"/>
    <trip id="veh249" type="veh_passenger" depart="65.33" departLane="best" from="-220285723#1" to="704147963#1"/>
    <trip id="veh250" type="veh_passenger" depart="65.59" departLane="best" departSpeed="max" from="-220959975" to="220476170#2"/>
    <trip id="veh251" type="veh_passenger" depart="65.86" departLane="best" from="-220536326#3" to="-94800093#7"/>
    <trip id="veh252" type="veh_passenger" depart="66.12" departLane="best" from="-707247684#0" to="-732958977"/>
    <trip id="veh253" type="veh_passenger" depart="66.38" departLane="best" from="704521312#1" to="-94800093#7"/>
    <trip id="veh254" type="veh_passenger" depart="66.64" departLane="best" departSpeed="max" from="704147961#0" to="732830914"/>
    <trip id="veh255" type="veh_passenger" depart="66.91" departLane="best" from="-732572868#1" to="-220959815#1"/>
    <trip id="veh256" type="veh_passenger" depart="67.17" departLane="best" from="-220285711#6" to="220959933"/>
    <trip id="veh257" type="veh_passenger" depart="67.43" departLane="best" from="gneE2" to="-732987944#0"/>
    <trip id="veh258" type="veh_passenger" depart="67.69" departLane="best" from="220888528" to="732598390#1"/>
    <trip id="veh259" type="veh_passenger" depart="67.95" departLane="best" from="220959814" to="732597264#3"/>
    <trip id="veh260" type="veh_passenger" depart="68.22" departLane="best" from="751974270#1" to="-732572868#0"/>
    <trip id="veh261" type="veh_passenger" depart="68.48" departLane="best" from="-220285712#11" to="-688874072#2"/>
    <trip id="veh262" type="veh_passenger" depart="68.74" departLane="best" from="-220959953" to="707313626"/>
    <trip id="veh264" type="veh_passenger" depart="69.27" departLane="best" from="239341342#1" to="732597277"/>
    <trip id="veh265" type="veh_passenger" depart="69.53" departLane="best" from="-544860357" to="596311696"/>
    <trip id="veh266" type="veh_passenger" depart="69.79" departLane="best" from="704147950#0" to="-220959968#0"/>
    <trip id="veh268" type="veh_passenger" depart="70.32" departLane="best" from="-220959920#2" to="-220285713#0"/>