<?xml version="1.0" encoding="UTF-8"?>

<!-- generated on 2021-11-21 17:04:06 by Eclipse SUMO duarouter Version 1.10.0
<configuration xmlns:xsi="http://www.w3.org/2001/XMLSchema-instance" xsi:noNamespaceSchemaLocation="http://sumo.dlr.de/xsd/duarouterConfiguration.xsd">

    <input>
        <net-file value="rize.net.xml"/>
        <route-files value="trips.trips.xml"/>
    </input>

    <output>
        <output-file value="rize.rou.xml"/>
        <alternatives-output value="rize.rou.alt.xml"/>
    </output>

    <time>
        <begin value="0"/>
        <end value="50"/>
    </time>

    <report>
        <no-warnings value="true"/>
        <ignore-errors value="true"/>
        <no-step-log value="true"/>
    </report>

</configuration>
-->

<routes xmlns:xsi="http://www.w3.org/2001/XMLSchema-instance" xsi:noNamespaceSchemaLocation="http://sumo.dlr.de/xsd/routes_file.xsd">
    <vehicle id="0" depart="0.00">
        <route edges="220959929 -220959825 -94800093#10 -94800093#9 -94800093#8 -94800093#7 -94800093#6 -94800093#5 -94800093#4 -94800093#3 -94800093#2 -94800093#1 -94800093#0 220285690#0 220285690#1 220285690#2 220285690#3 220285690#4 220285690#5 220285690#6 220285690#7 220285690#8 220285690#9 220285690#10 220285690#11 220285690#12 220285690#13 220285690#14 220285690#15 220285690#16 220285690#17 612003763#0 612003763#1 612003763#2 220285720 157111328#2 967234363#0 967234363#1 967234363#2 967234363#3 967234363#4 967234361#0 220285709#0 220285709#1 -778936907#11 -778936907#10 -778936907#9 -778936907#8 -778936907#7 -778936907#6 -778936907#5 -778936907#4 -778936907#3 220285687 220285728#3 220285728#4 220285728#5 220285728#0 -220285723#4"/>
    </vehicle>
    <vehicle id="1" depart="1.00">
        <route edges="-707231895#0 707231895#0 -732572823#0 611415890#2 611415890#3 611415890#4 611415890#5 611398280#0 611398280#1 59740754 157111328#1 157111328#2 967234363#0 967234363#1 220401033 482092794#9 482092794#10 482092794#11 482092794#12 482092794#13 482092794#14 -482092794#14"/>
    </vehicle>
    <vehicle id="2" depart="2.00">
        <route edges="482092794#0 482092794#1 482092794#2 482092794#3 482092794#4 482092794#5 482092794#6 482092794#7 482092794#8 482092794#9 220959981 967234363#3 967234363#4 967234361#0 967234361#1 967234362 220285699#0 611398277#0 611398277#1 59740755#0 59740755#1 59740755#2 59740755#3 59740755#4 59740755#5 59740755#6 59740755#7 220536323#0 220536323#1 704515411#0 704515411#1 704515411#2 704515411#3 -732572831 732572832#0 732572832#1 -732830927 732830930#0 732830930#1 732830930#2 -732830937 371878363#1 371878363#2 371878363#3 371878363#4"/>
    </vehicle>
    <vehicle id="3" depart="3.00">
        <route edges="732830934#2 -732830930#1 -732830930#0 732830927 -732572832#1 -732572832#0 732572831 -704515411#3 -704515411#2 707313624#1 707313625#0 707313625#1 -220959976#0 -220536324#3 -220536324#2 -220536324#1 -220536324#0 -220959923 220285671#0 220285671#1 220285671#2 220285671#3 220285671#4 220285671#5 220285671#6 220285671#7 220285671#8 94800093#0 94800093#1 94800093#2 94800093#3 94800093#4 94800093#5 94800093#6 94800093#7 -967234364 -220401029#32 220959822 -220959822"/>
    </vehicle>
    <vehicle id="4" depart="4.00">
        <route edges="-778936907#7 778936907#7 778936907#8 778936907#9 778936907#10 778936907#11 778936907#12 778936907#13 967234362 220285699#0 220285699#1 220285699#2 -612003763#2 -612003763#1 -612003763#0 -220285690#17 -220285690#16 -220285690#15 -220285690#14 -220285690#13 -220285690#12 -220285690#11 -220285690#10 -220285690#9 -220285690#8 -220285690#7 -220285690#6 -220285690#5 -220285690#4 -220285690#3 -220285690#2 -220285690#1 -220285690#0 94800093#0 94800093#1 94800093#2 94800093#3 94800093#4 94800093#5 94800093#6 220536382#0 -220401029#27 -220401029#26"/>
    </vehicle>
    <vehicle id="5" depart="5.00">
        <route edges="-482092794#5 482092794#5 482092794#6 482092794#7 482092794#8 482092794#9 220959981 967234363#3 967234363#4 967234361#0 220285709#0 220285709#1 -778936907#11 -778936907#10 -778936907#9 -220476164 220476169#3 707247680 610262465#1 707247682#1 707247686 707245213#1 220285678#0 220476166 -220959982 -220476167 220476167"/>
    </vehicle>
    <vehicle id="7" depart="7.00">
        <route edges="220959971 220959935#1 -220285690#14 -220285690#13 -220285690#12 -220285690#11 -220285690#10 -220285690#9 -220285690#8 -220285690#7 -220285690#6 -220285690#5 -220285690#4 -220285690#3 -220285690#2 -220285690#1 -220285690#0 94800093#0 94800093#1 94800093#2 94800093#3 -544621016 -220401029#19 220536406#0 220536406#1 220536383#0 220536383#1"/>
    </vehicle>
    <vehicle id="8" depart="8.00">
        <route edges="-544620988 -544620987#0 -220536406#2 -220536406#1 -220536406#0 -220401029#18 -220401029#17 -220401029#16 -220401029#15 -220401029#14 -220401029#13 -220401029#12 -220401029#11 -220959837 -220285671#7 -220285671#6 -220285671#5 -220285671#4 -220285671#3 -220285671#2 -220285671#1 -220285671#0 611398276#0 611398276#1 611398276#2 611398276#3 611398276#4 611398276#5 220959847"/>
    </vehicle>
    <vehicle id="9" depart="9.00">
        <route edges="704523453 704523454 704523449#0 704523449#1 -704523448#1 704524428#0 704524428#1 704524428#2 704524428#3 -707235527#9 -707235527#8 -707235527#7 -707235527#6 -707235527#5 -707235527#4 -707235527#3 -707235527#2 -707235527#1 -707235527#0 611415890#0 611415890#1 611415890#2 611415890#3 611415890#4 611415890#5 611398280#0 611398280#1 220285699#2 -612003763#2 -612003763#1 -612003763#0 -220285690#17 -220285690#16 -220285690#15"/>
    </vehicle>
    <vehicle id="11" depart="11.00">
        <route edges="-732830915#1 220959959#0 220959959#1 220959959#2 611415890#1 611415890#2 611415890#3 611415890#4 611415890#5 611398280#0 611398281 220476169#0 220476169#1 220476169#2 220476169#3 707247680 610262465#1 707247682#1 707247682#2 -707247685 -707247684#3 -707247684#2 -707247684#1 -707247684#0 -239342270#2"/>
    </vehicle>
    <vehicle id="12" depart="12.00">
        <route edges="94800093#12 -94800093#12 -94800093#11 -94800093#10 -94800093#9 -94800093#8 -94800093#7 -94800093#6 -94800093#5 -94800093#4 -94800093#3 -94800093#2 -94800093#1 -94800093#0 220285690#0 220285690#1 220285690#2 220285690#3 220285690#4 220285690#5 220285690#6 220285690#7 220285690#8 220285690#9 220285690#10 220285690#11 220285690#12 220285690#13 220285690#14 220285690#15 220285683#0 220285683#1 967234360#4 967234360#5 967234360#6 967234360#7 611398285 611398281 611398277#1 220401030#0 220401030#1 220401030#2 220401030#3 611415894#0 611415894#1 611415894#2 611415894#3 611415894#4 707235527#0 707235527#1 707235527#2 707235527#3 707235527#4 707235527#5 707235527#6 707235527#7 707235527#8 707235527#9 707235527#10 220476162 220401035#1 704525159 704525161 704525160 704147961#2 -732832470"/>
    </vehicle>
    <vehicle id="13" depart="13.00">
        <route edges="-220959833#0"/>
    </vehicle>
    <vehicle id="14" depart="14.00">
        <route edges="732572823#0 707231895#1 -707235527#0 611415890#0 611415890#1 611415890#2 611415890#3 611415890#4 611415890#5 611398280#0 611398280#1 220285699#2 -612003763#2 -612003763#1 -612003763#0 -220285690#17 -220285690#16 -220285690#15 -220285690#14 -220285690#13 -220285690#12 -220285690#11 -220285690#10 -220285690#9 -220285690#8 -220285690#7 -220285690#6 -220285690#5 -220285690#4 -220285690#3 -220285690#2 -220285690#1 -220285690#0 94800093#0 94800093#1 94800093#2 94800093#3 94800093#4 94800093#5 94800093#6 94800093#7 -967234364 -220401029#32 -220401029#31 220959924"/>
    </vehicle>
    <vehicle id="15" depart="15.00">
        <route edges="704523448#3 755748804 -755748804 -704523448#3 704524429#0 704524430#0 704524430#1 -707235527#8 -707235527#7 -707235527#6 -707235527#5 -707235527#4 -707235527#3 -707235527#2 -707235527#1 -707235527#0 611415890#0 611415890#1 611415890#2 611415890#3 611415890#4 611415890#5 611398280#0 611398281 220476169#0 220476169#1 220476169#2 220476169#3 707247680 610262465#1 707247682#1 707247682#2 -220476159#5 -220476159#4 -220476159#3 -220476159#2 -610262463 610262463"/>
    </vehicle>
    <vehicle id="16" depart="16.00">
        <route edges="220476157 -220476151#0 220476156 -707235527#10 -704524428#3 -704524428#2 704523448#0 704523448#1 -704523449#1 707313621#1 707313623 707313622#0 707313622#1 953809143#0 953809143#1 980722880#1 953809144#1 953809144#2"/>
    </vehicle>
    <vehicle id="17" depart="17.00">
        <route edges="-732932552 972222498#2 972222498#3 972222498#4 610262462 610262463 220476159#2 -220285731#1 -220285731#0 778936907#6 778936907#7 778936907#8 778936907#9 778936907#10 778936907#11 778936907#12 778936907#13 967234362 220285699#0 220285699#1 220285699#2 -612003763#2 -612003763#1 -612003763#0 -220285690#17 -220285690#16 -220285690#15 -220285690#14 -220285690#13 -220285690#12 -220285690#11 -220285690#10 -220285690#9 -220285690#8 -220285690#7 -220285690#6 -220285690#5 -220285690#4 -220285690#3 -220285690#2 -220285690#1 -220285690#0 94800093#0 94800093#1 94800093#2 94800093#3 94800093#4 94800093#5 -220536404#3 -220536404#2 -220536404#1 220536404#1"/>
    </vehicle>
    <vehicle id="18" depart="18.00">
        <route edges="707313622#1 707313622#2 707313624#0 707313624#1 707313625#0 707313625#1 -220959976#0 -220536324#3 -220536324#2 -220536324#1 -220536324#0 -220959923 220285671#0 220285671#1 220285671#2 220285671#3 220285671#4 220285671#5 220285671#6 220285671#7 220285671#8 94800093#0 94800093#1 94800093#2 94800093#3 94800093#4 94800093#5 94800093#6 94800093#7 94800093#8 94800093#9 220959974#0 220959974#1"/>
    </vehicle>
    <vehicle id="19" depart="19.00">
        <route edges="732572842#1 -732572841 -545736283#1 -545736283#0 545736276#2 220536327#3 -220536406#4 220536354#12 220536354#13 220536354#14 220536354#15 220536354#16 220536354#17 -545448779#2 -545448779#1 -545448779#0 -220959985#2 -220959985#1 -220959985#0 220401029#10 -220959837 220285671#8 220285690#0 220285690#1 220285690#2 220285690#3 220285690#4 220285690#5 220285690#6 220285690#7 220285690#8 220285690#9 220285690#10 220285690#11 220285690#12 220285690#13 220285690#14 220285690#15 220285690#16 220285690#17 612003763#0 612003763#1 612003763#2 220285720 157111328#2 967234363#0 967234363#1 967234363#2 967234363#3 967234363#4 967234361#0 220285709#0 220285709#1 -778936907#11 -778936907#10 -778936907#9 -778936907#8 -778936907#7 -778936907#6 220285731#0 220285731#1 -220476159#2 -610262463 -610262462 220959833#0"/>
    </vehicle>
    <vehicle id="20" depart="20.00">
        <route edges="371878363#6 -371878363#6 -371878363#5 -371878363#4 -371878363#3 -371878363#2 -371878363#1 732830937 -732830930#2 -732830930#1 -732830930#0 732830927 -732572832#1 -732572832#0 732572831 -704515411#3 -704515411#2 -704515411#1 -704515411#0 220959948#0 220959948#1 -220401029#0 610262466#0 610262466#1 611398276#4 611398276#5 611398276#6 611398276#7 611398276#8 967234360#0 967234360#1 967234360#2 967234360#3 967234360#4 967234360#5 967234360#6 967234360#7 611398285 611398281 220476169#0 220476169#1 220476169#2 220476169#3 707247680 610262465#1 707247682#1 707247682#2 -220476159#5 -220476159#4 -220476159#3 -220476159#2"/>
    </vehicle>
    <vehicle id="21" depart="21.00">
        <route edges="-584545371#0 544634586 220536327#0 220536327#1 220536327#2 -545736276#2 545736283#0 545736283#1 732572841 -732572841"/>
    </vehicle>
    <vehicle id="22" depart="22.00">
        <route edges="-220959816#1 220959816#1 220959816#2 220536354#5 220536354#6 220536354#7 220536354#8 220536354#9 220536354#10 220536354#11 220536354#12 220536354#13 220536354#14 220536354#15 220536354#16 220536354#17 220536354#18 220536354#19 544634590 704147944#0 220959976#0 220959976#1 220959976#2 220959926#0 220959926#1 220959936 -704515411#2 -704515411#1 -704521312#2 -704521312#1 -704521312#0 -220536397#4 -220536397#3 -220536397#2 -220536397#1 -220536391#1 -546367936"/>
    </vehicle>
    <vehicle id="23" depart="23.00">
        <route edges="-220959838#0 -220401029#11 -220959837 -220285671#7 -220285671#6 -220285671#5 -220285671#4 -220285671#3 -220285671#2 -220285671#1 -220285671#0 220959923 220536324#0 220536324#1 220536324#2 220536324#3 704147944#1 704147944#2 704147945 704147946#0 704147946#1 -732572823#1 -732572823#0"/>
    </vehicle>
    <vehicle id="24" depart="24.00">
        <route edges="220959917#4 220959917#5 220959917#6 -220476151#5 -220476151#4 -220476151#3 -220476151#2 -220476151#1 -220476151#0 220476156 707235527#11 707235527#12 247789321 704147949 704147950#0 704147950#1 -755748618 755748619 -755748620"/>
    </vehicle>
    <vehicle id="25" depart="25.00">
        <route edges="-732932525 -732932526 732932531 972222498#1 972222498#2 972222498#3 972222498#4 610262462 610262463 220476159#2 -220285731#1 -220285731#0 778936907#6 778936907#7 778936907#8 778936907#9 778936907#10 778936907#11 778936907#12 778936907#13 967234362 157111328#0 157111328#1 157111328#2 967234363#0 967234363#1 220401033 -482092794#8 -482092794#7 -482092794#6 -482092794#5 -482092794#4 -482092794#3 -482092794#2 -482092794#1 -482092794#0"/>
    </vehicle>
    <vehicle id="26" depart="26.00">
        <route edges="-704521313#1 -704521313#0 -704521314 -220536363 755749143 -755749142#3 -755749142#2 -755749142#1 755749142#1"/>
    </vehicle>
    <vehicle id="27" depart="27.00">
        <route edges="220959966#1 -220401029#28 -220536382#0 -94800093#6 -94800093#5 -94800093#4 -94800093#3 -94800093#2 -94800093#1 -94800093#0 220285690#0 220285690#1 220285690#2 220285690#3 220285690#4 220285690#5 220285690#6 220285690#7 220285690#8 220285690#9 220285690#10 220285690#11 220285690#12 220285690#13 220285690#14 220285690#15 220285690#16 220285690#17 612003763#0 612003763#1 612003763#2 220285720 157111328#2 967234363#0 967234363#1 967234363#2 967234363#3 967234363#4 967234361#0 220285709#0 220285709#1 -778936907#11 -778936907#10 -778936907#9 -220476164 220476169#3 707247680 610262465#1 707247682#1 707247682#2 -220476159#5 -220476159#4 220959942#0 220959942#1"/>
    </vehicle>
    <vehicle id="28" depart="28.00">
        <route edges="-307329892#1 -307329892#0 -220959875#3 -220959875#2 -220959875#1 -220959875#0 -220959942#0 -220476159#3 -220476159#2 -610262463 610262463"/>
    </vehicle>
    <vehicle id="29" depart="29.00">
        <route edges="-288807640#0 -371878374#1 -371878374#0 -371878363#6 -371878363#5 -371878363#4 -371878363#3 -371878363#2 -371878363#1 -371878363#0 -704147950#6 -704147950#5 -704147950#4 -704147950#3 -704147950#2 -704147950#1 -704147950#0 -704147949 -247789321 -707235527#12 -707235527#11 -220476156 220476151#0 220476151#1 220476151#2 -755752107"/>
    </vehicle>
    <vehicle id="30" depart="30.00">
        <route edges="980722084 980722880#0 953809143#2 707313625#1 220959976#1 220959976#2 220959926#0 220959926#1 220959936 704515411#3 -732572831 732572832#0 732572832#1 -732830927 732830930#0 732830930#1 732830930#2 -732830937 371878363#1 371878363#2 371878363#3 -732572851 732572858#3 732572859#0 732572863 239341342#1"/>
    </vehicle>
    <vehicle id="31" depart="31.00">
        <route edges="220536354#0 220536354#1 220536354#2 220536354#3 220536354#4 220536354#5 220536354#6 220536354#7 220536354#8 220536354#9 220536354#10 220536354#11 220536354#12 220536354#13 220536354#14 220536354#15 220536354#16 220536354#17 220536354#18 220536354#19 544634590 704147944#0 220959976#0 220959976#1 220959976#2 220959926#0 220959926#1 220959936 704515411#3 -732572831 732572832#0 732572832#1 -732830927 732830930#0 732830930#1 732830930#2 -732830937 371878363#1 371878363#2 371878363#3 371878363#4 371878363#5 371878363#6 371878374#0 371878372"/>
    </vehicle>
    <vehicle id="32" depart="32.00">
        <route edges="71376575#0 -157111468#1 -157111468#0 157111328#2 967234363#0 967234363#1 967234363#2 967234363#3 967234363#4 967234361#0 967234361#1 967234362 220285699#0 611398277#0 611398277#1 220401030#0 220401030#1 220401030#2 220401030#3 611415894#0 611415894#1 611415894#2 611415894#3 611415894#4 707235527#0 707235527#1 707235527#2 707235527#3 707235527#4 707235527#5 707235527#6 707235527#7 707235527#8 707235527#9 707235527#10 220476162 220401035#1 704525159 704525161 704525160 704147961#2 704147961#3"/>
    </vehicle>
    <vehicle id="33" depart="33.00">
        <route edges="-596311691#1 -596311691#0 220536327#6 220536327#7 220959816#2 220959816#3 220959816#4 220401029#30 -220401029#30"/>
    </vehicle>
    <vehicle id="34" depart="34.00">
        <route edges="-732572850 732572848 732572847#1 -371878363#4 -371878363#3 -371878363#2 -371878363#1 -371878363#0 -704147950#6 -704147950#5 -704147950#4 -704147950#3 -704147950#2 -704147950#1 -704147950#0 -704147949 -247789321 -707235527#12 -707235527#11 -220476156 220476151#0 -220476157 -239342270#1 -239342270#0 -704525457"/>
    </vehicle>
    <vehicle id="36" depart="36.00">
        <route edges="732572863 -732572863 -732572859#0 -732572858#3 732572851 -371878363#3 -371878363#2 -371878363#1 732830937 -732830930#2 -732830930#1 -732830930#0 732830927 -732572832#1 732830917#0 732830917#1 -732830919 732830919 -732830917#1"/>
    </vehicle>
    <vehicle id="37" depart="37.00">
        <route edges="239341338 239341342#0 -732572863 -732572859#0 -732572858#3 732572851 -371878363#3 -371878363#2 -371878363#1 732830937 -732830930#2 -732830930#1 -732830930#0 732830927 -732572832#1 -732572832#0 732572831 -704515411#3 -704515411#2 707313624#1 707313625#0 707313625#1 -220959976#0 -220536324#3 -220536324#2 -220536324#1 -220536324#0 -220959923 220285671#0 220285671#1 220285671#2 220285671#3 220285671#4 220285671#5 220285671#6 220285671#7 220285671#8 94800093#0 94800093#1 94800093#2 94800093#3 94800093#4 94800093#5 94800093#6 94800093#7 94800093#8 94800093#9 -94800093#9"/>
    </vehicle>
    <vehicle id="38" depart="38.00">
        <route edges="732932532 -307329892#0 -220959875#3 -220959875#2 -220959875#1 -220959875#0 -220959942#0 220476159#4 220476159#5 707245213#0 707245213#1 220285678#0 220285678#1 220285678#2 220285678#3"/>
    </vehicle>
    <vehicle id="39" depart="39.00">
        <route edges="-704515411#2 707313624#1 707313625#0 707313625#1 -220959976#0 704147944#1 704147944#2 704147945 704147946#0 704147946#1 704147946#2 704523451 704523452 704523453 704523454 704523449#0 704523449#1 -704523448#1 704524428#0 704524428#1 704524428#2 704524428#3 707235527#10 707235527#11 707235527#12 247789321 704147949 704147950#0 704147950#1 -704147950#1"/>
    </vehicle>
    <vehicle id="40" depart="40.00">
        <route edges="220536354#18 220536354#19 544634590 704147944#0 704147944#1 704147944#2 704147945 704147946#0 704147946#1 704147946#2 704523451 704523452 704523453 704523454 704523449#0 704523449#1 -704523448#1 -704523448#0"/>
    </vehicle>
    <vehicle id="41" depart="41.00">
        <route edges="220536406#0 220536406#1 220536406#2 220536406#3 220536354#12 220536354#13 220536354#14 220536354#15 220536354#16 220536354#17 220536354#18 220536354#19 544634590 704147944#0 704147944#1 704147944#2 704147945 704147946#0 704147946#1 704147946#2 704523451 704523452 704523453 704523454 704523449#0 707313621#1 707313623 707313622#0 751974272 -755749146#0 755749148 -755749147#1 -732830938 732830938"/>
    </vehicle>
    <vehicle id="42" depart="42.00">
        <route edges="-755748622 755748620 -755748619 755748618 -704147950#1 -704147950#0 -704147949 -247789321 -707235527#12 -707235527#11 -707235527#10 -707235527#9 -707235527#8 -707235527#7 -707235527#6 -707235527#5 -707235527#4 -707235527#3 -707235527#2 -707235527#1 -707235527#0 611415890#0 611415890#1 611415890#2 611415890#3 611415890#4 611415890#5 611398280#0 611398280#1 59740754 157111328#1 157111328#2 967234363#0 967234363#1 220401033 -482092794#8 -482092794#7 -482092794#6 -482092794#5 -482092794#4 -482092794#3 -482092794#2 -482092794#1 -482092794#0"/>
    </vehicle>
    <vehicle id="43" depart="43.00">
        <route edges="980722084 980722880#0 953809143#2 707313625#1 -220959976#0 -220536324#3 -220536324#2 220536324#2"/>
    </vehicle>
    <vehicle id="44" depart="44.00">
        <route edges="-220959833#0 610262462 610262463 220476159#2 220476159#3 220476159#4 -220476159#4"/>
    </vehicle>
    <vehicle id="45" depart="45.00">
        <route edges="-220959910 610262463 220476159#2 220476159#3 220476159#4 220476159#5 707245213#0 707245213#1 220285678#0 220285678#1 220285678#2 220285678#3 59740755#0 59740755#1 59740755#2 59740755#3 59740755#4 59740755#5 59740755#6 59740755#7 220536323#0 220536323#1 704515411#0 704515411#1 704515411#2 704515411#3 -732572831 732572832#0 732572832#1 -732830927 732830930#0 732830930#1 732830930#2 -732830937 371878363#1 371878363#2 371878363#3 371878363#4 371878363#5 371878363#6 371878374#0 371878374#1 288807640#0 288807640#1 288807640#2 288807640#3 239341338"/>
    </vehicle>
    <vehicle id="46" depart="46.00">
        <route edges="704147950#5 -704147950#5 -704147950#4 -704147950#3 -704147950#2 -704147950#1 -704147950#0 -704147949 -247789321 -707235527#12 -707235527#11 -707235527#10 -707235527#9 -707235527#8 -707235527#7 -707235527#6 -707235527#5 -707235527#4 -707235527#3 -707235527#2 -707235527#1 -707235527#0 611415890#0 611415890#1 611415890#2 611415890#3 611415890#4 611415890#5 611398280#0 611398280#1 59740754 157111328#1 157111468#0 157111468#1 71376575#1 157111158#0"/>
    </vehicle>
    <vehicle id="47" depart="47.00">
        <route edges="-220536396 220401029#5 -220959859#1 -220959859#0 -220285671#3 -220959921#1 -220959921#0 220285690#5 220285690#6 220285690#7 220285690#8 220285690#9 220285690#10 220285690#11 220285690#12 220285690#13 220285690#14 220285690#15 220285690#16 220285690#17 612003763#0 612003763#1 612003763#2 220285720 157111328#2 967234363#0 967234363#1 967234363#2 967234363#3 967234363#4 967234361#0 220285709#0 220285709#1 -778936907#11 -778936907#10 -778936907#9 -778936907#8 -778936907#7 -778936907#6 -778936907#5 -778936907#4 -778936907#3 -778936907#2"/>
    </vehicle>
    <vehicle id="48" depart="48.00">
        <route edges="980722084 980722880#0 953809143#2 707313625#1 707313625#2 544634586 220536327#0 -544635146 220536354#18"/>
    </vehicle>
    <vehicle id="49" depart="49.00">
        <route edges="953809144#2 704147946#1 704147946#2 704523451 704523452 704523453 704523454 704523449#0 707313621#1 707313623 707313622#0 751974272 -755749146#0 755749148 -755749147#1 -732830938 704147950#6 371878363#0 371878363#1 371878363#2 371878363#3 -732572851 732572858#3 732572859#0"/>
    </vehicle>
</routes>
