<?xml version="1.0" encoding="UTF-8"?>

<!-- generated on 2021-10-29 16:30:55 by Eclipse SUMO duarouter Version 1.10.0
<configuration xmlns:xsi="http://www.w3.org/2001/XMLSchema-instance" xsi:noNamespaceSchemaLocation="http://sumo.dlr.de/xsd/duarouterConfiguration.xsd">

    <input>
        <net-file value="osm.net.xml"/>
        <route-files value="osm.motorcycle.trips.xml"/>
    </input>

    <output>
        <output-file value="osm.motorcycle.trips.xml.tmp"/>
        <write-trips value="true"/>
    </output>

    <time>
        <begin value="0"/>
        <end value="3600"/>
    </time>

    <report>
        <no-warnings value="true"/>
        <ignore-errors value="true"/>
        <no-step-log value="true"/>
    </report>

</configuration>
-->

<routes xmlns:xsi="http://www.w3.org/2001/XMLSchema-instance" xsi:noNamespaceSchemaLocation="http://sumo.dlr.de/xsd/routes_file.xsd">
    <vType id="moto_motorcycle" vClass="motorcycle"/>
    <trip id="moto0" type="moto_motorcycle" depart="0.00" departLane="best" from="707313625#2" to="704523451"/>
    <trip id="moto1" type="moto_motorcycle" depart="0.79" departLane="best" from="732598396#1" to="220959876#0"/>
    <trip id="moto2" type="moto_motorcycle" depart="1.57" departLane="best" departSpeed="max" from="-732597268" to="-732597254#1"/>
    <trip id="moto3" type="moto_motorcycle" depart="2.36" departLane="best" from="-755748197" to="755749146#1"/>
    <trip id="moto4" type="moto_motorcycle" depart="3.15" departLane="best" from="-220536406#2" to="220401029#6"/>
    <trip id="moto5" type="moto_motorcycle" depart="3.93" departLane="best" departSpeed="max" from="-704521313#4" to="546365166"/>
    <trip id="moto6" type="moto_motorcycle" depart="4.72" departLane="best" departSpeed="max" from="-732958966" to="220285715#1"/>
    <trip id="moto7" type="moto_motorcycle" depart="5.51" departLane="best" from="545235928" to="59740754"/>
    <trip id="moto8" type="moto_motorcycle" depart="6.29" departLane="best" from="-544779566" to="220285690#5"/>
    <trip id="moto9" type="moto_motorcycle" depart="7.08" departLane="best" from="157111155" to="-704515411#1"/>
    <trip id="moto10" type="moto_motorcycle" depart="7.86" departLane="best" from="-220476159#3" to="220959917#0"/>
    <trip id="moto11" type="moto_motorcycle" depart="8.65" departLane="best" from="191453131#2" to="732624620"/>
    <trip id="moto12" type="moto_motorcycle" depart="9.44" departLane="best" from="-220536396" to="-584545371#1"/>
    <trip id="moto13" type="moto_motorcycle" depart="10.22" departLane="best" from="220536329" to="59740755#4"/>
    <trip id="moto14" type="moto_motorcycle" depart="11.01" departLane="best" from="-704515411#2" to="-220959915#0"/>
    <trip id="moto15" type="moto_motorcycle" depart="11.80" departLane="best" from="220536391#0" to="967234363#0"/>
    <trip id="moto16" type="moto_motorcycle" depart="12.58" departLane="best" from="-220959967#1" to="-220959926#0"/>
    <trip id="moto17" type="moto_motorcycle" depart="13.37" departLane="best" from="707235527#10" to="732830910"/>
    <trip id="moto18" type="moto_motorcycle" depart="14.16" departLane="best" from="707247683#0" to="732830916#0"/>
    <trip id="moto19" type="moto_motorcycle" depart="14.94" departLane="best" from="707235527#0" to="-707235527#9"/>
    <trip id="moto20" type="moto_motorcycle" depart="15.73" departLane="best" from="859307738#1" to="-732597291#0"/>
    <trip id="moto21" type="moto_motorcycle" depart="16.52" departLane="best" from="220536377#2" to="220536344"/>
    <trip id="moto22" type="moto_motorcycle" depart="17.30" departLane="best" from="-732830909#0" to="-220536369#0"/>
    <trip id="moto23" type="moto_motorcycle" depart="18.09" departLane="best" from="220959916#1" to="-732932533"/>
    <trip id="moto24" type="moto_motorcycle" depart="18.88" departLane="best" from="-127482092#2" to="-732598409"/>
    <trip id="moto25" type="moto_motorcycle" depart="19.66" departLane="best" from="-220536404#3" to="220536354#18"/>
    <trip id="moto26" type="moto_motorcycle" depart="20.45" departLane="best" from="-545736283#0" to="-220285707#4"/>
    <trip id="moto27" type="moto_motorcycle" depart="21.24" departLane="best" from="-482092794#19" to="755752096#1"/>
    <trip id="moto28" type="moto_motorcycle" depart="22.02" departLane="best" from="220285671#2" to="-220401029#9"/>
    <trip id="moto29" type="moto_motorcycle" depart="22.81" departLane="best" from="544620964#0" to="220536324#1"/>
    <trip id="moto30" type="moto_motorcycle" depart="23.59" departLane="best" from="-704147961#1" to="-704524429#0"/>
    <trip id="moto31" type="moto_motorcycle" depart="24.38" departLane="best" from="-220476151#2" to="-755749147#0"/>
    <trip id="moto32" type="moto_motorcycle" depart="25.17" departLane="best" from="-220285693#2" to="220536407#3"/>
    <trip id="moto33" type="moto_motorcycle" depart="25.95" departLane="best" from="220959837" to="732572829#1"/>
    <trip id="moto34" type="moto_motorcycle" depart="26.74" departLane="best" from="732597273#0" to="732597289"/>
    <trip id="moto35" type="moto_motorcycle" depart="27.53" departLane="best" from="-544620960#0" to="-220285690#1"/>
    <trip id="moto36" type="moto_motorcycle" depart="28.31" departLane="best" from="-220476154#4" to="-239342265#0"/>
    <trip id="moto37" type="moto_motorcycle" depart="29.10" departLane="best" from="220285731#0" to="-732830909#2"/>
    <trip id="moto38" type="moto_motorcycle" depart="29.89" departLane="best" from="704524428#3" to="-707235527#2"/>
    <trip id="moto39" type="moto_motorcycle" depart="30.67" departLane="best" from="972222498#4" to="-732830913#0"/>
    <trip id="moto40" type="moto_motorcycle" depart="31.46" departLane="best" from="220536406#2" to="220959967#0"/>
    <trip id="moto41" type="moto_motorcycle" depart="32.25" departLane="best" from="59740755#7" to="755748200"/>
    <trip id="moto42" type="moto_motorcycle" depart="33.03" departLane="best" from="611398276#6" to="220959836"/>
    <trip id="moto43" type="moto_motorcycle" depart="33.82" departLane="best" from="-220536410#2" to="755752106"/>
    <trip id="moto44" type="moto_motorcycle" depart="34.61" departLane="best" from="755748200" to="gneE1"/>
    <trip id="moto45" type="moto_motorcycle" depart="35.39" departLane="best" from="220536383#1" to="-732572846"/>
    <trip id="moto46" type="moto_motorcycle" depart="36.18" departLane="best" from="220285717#1" to="-220536411#6"/>
    <trip id="moto47" type="moto_motorcycle" depart="36.97" departLane="best" from="220285715#1" to="-755752096#1"/>
    <trip id="moto48" type="moto_motorcycle" depart="37.75" departLane="best" departSpeed="max" from="732830908#0" to="732830916#0"/>
    <trip id="moto50" type="moto_motorcycle" depart="39.32" departLane="best" from="220476169#4" to="980722880#1"/>
    <trip id="moto51" type="moto_motorcycle" depart="40.11" departLane="best" from="220285717#0" to="220536410#1"/>
    <trip id="moto52" type="moto_motorcycle" depart="40.90" departLane="best" from="220401029#9" to="-732572825#0"/>
    <trip id="moto53" type="moto_motorcycle" depart="41.68" departLane="best" departSpeed="max" from="732572825#0" to="-755752109"/>
    <trip id="moto54" type="moto_motorcycle" depart="42.47" departLane="best" from="953809143#1" to="220476155"/>
    <trip id="moto55" type="moto_motorcycle" depart="43.26" departLane="best" from="-220285724#1" to="220476169#2"/>
    <trip id="moto56" type="moto_motorcycle" depart="44.04" departLane="best" from="220285683#0" to="220285707#2"/>
    <trip id="moto57" type="moto_motorcycle" depart="44.83" departLane="best" departSpeed="max" from="-732830935" to="-732830950#0"/>
    <trip id="moto58" type="moto_motorcycle" depart="45.62" departLane="best" from="544620960#4" to="732572839"/>
    <trip id="moto59" type="moto_motorcycle" depart="46.40" departLane="best" from="-220959951#4" to="220285712#1"/>
    <trip id="moto60" type="moto_motorcycle" depart="47.19" departLane="best" from="220401030#0" to="220959864"/>
    <trip id="moto61" type="moto_motorcycle" depart="47.98" departLane="best" from="94800093#5" to="544779586#2"/>
    <trip id="moto62" type="moto_motorcycle" depart="48.76" departLane="best" from="545736276#2" to="-220536410#0"/>
    <trip id="moto63" type="moto_motorcycle" depart="49.55" departLane="best" from="-482092794#18" to="-220959942#1"/>
    <trip id="moto64" type="moto_motorcycle" depart="50.34" departLane="best" departSpeed="max" from="859307739" to="732597261"/>
    <trip id="moto65" type="moto_motorcycle" depart="51.12" departLane="best" from="-220959943#0" to="755748196#1"/>
    <trip id="moto66" type="moto_motorcycle" depart="51.91" departLane="best" from="-220959939#0" to="220285699#2"/>
    <trip id="moto67" type="moto_motorcycle" depart="52.70" departLane="best" from="220959923" to="707247684#2"/>
    <trip id="moto68" type="moto_motorcycle" depart="53.48" departLane="best" from="610262463" to="-307329905#0"/>
    <trip id="moto69" type="moto_motorcycle" depart="54.27" departLane="best" departSpeed="max" from="755748201" to="-220285713#3"/>
    <trip id="moto70" type="moto_motorcycle" depart="55.05" departLane="best" from="220536354#10" to="-220285701#1"/>
    <trip id="moto71" type="moto_motorcycle" depart="55.84" departLane="best" from="-220959917#6" to="220959824#3"/>
    <trip id="moto72" type="moto_motorcycle" depart="56.63" departLane="best" from="-610262466#1" to="-704521313#2"/>
    <trip id="moto73" type="moto_motorcycle" depart="57.41" departLane="best" from="-191446780#1" to="732624629"/>
    <trip id="moto74" type="moto_motorcycle" depart="58.20" departLane="best" from="-482092794#14" to="-220476151#4"/>
    <trip id="moto75" type="moto_motorcycle" depart="58.99" departLane="best" from="778936907#13" to="-220476164"/>
    <trip id="moto76" type="moto_motorcycle" depart="59.77" departLane="best" from="-220536397#2" to="220959964#1"/>
    <trip id="moto77" type="moto_motorcycle" depart="60.56" departLane="best" from="220888371#0" to="220695226#5"/>
    <trip id="moto78" type="moto_motorcycle" depart="61.35" departLane="best" from="220285690#14" to="220285701#0"/>
    <trip id="moto79" type="moto_motorcycle" depart="62.13" departLane="best" from="220536371" to="-220959809#0"/>
    <trip id="moto80" type="moto_motorcycle" depart="62.92" departLane="best" from="544620976" to="-704521312#2"/>
    <trip id="moto81" type="moto_motorcycle" depart="63.71" departLane="best" departSpeed="max" from="-732958957" to="-732932566"/>
    <trip id="moto82" type="moto_motorcycle" depart="64.49" departLane="best" from="611415893#2" to="-220959864"/>
    <trip id="moto83" type="moto_motorcycle" depart="65.28" departLane="best" from="-191453176#1" to="-732624627#1"/>
    <trip id="moto84" type="moto_motorcycle" depart="66.07" departLane="best" from="307329904#1" to="220476167"/>
    <trip id="moto85" type="moto_motorcycle" depart="66.85" departLane="best" from="-220536377#2" to="732830913#0"/>
    <trip id="moto86" type="moto_motorcycle" depart="67.64" departLane="best" from="-220401029#2" to="-220285690#7"/>
    <trip id="moto87" type="moto_motorcycle" depart="68.42" departLane="best" from="-220959861" to="-220285693#2"/>
    <trip id="moto88" type="moto_motorcycle" depart="69.21" departLane="best" from="220536324#0" to="220536377#1"/>
    <trip id="moto89" type="moto_motorcycle" depart="70.00" departLane="best" from="732932521" to="-732958969#3"/>
    <trip id="moto90" type="moto_motorcycle" depart="70.78" departLane="best" departSpeed="max" from="732572834" to="-732572833"/>
    <trip id="moto91" type="moto_motorcycle" depart="71.57" departLane="best" from="220536354#8" to="732572842#1"/>
    <trip id="moto92" type="moto_motorcycle" depart="72.36" departLane="best" from="220536409#0" to="732830916#1"/>
    <trip id="moto93" type="moto_motorcycle" depart="73.14" departLane="best" from="-220476158" to="220536326#6"/>
    <trip id="moto94" type="moto_motorcycle" depart="73.93" departLane="best" from="-220536388#1" to="732830916#1"/>
    <trip id="moto95" type="moto_motorcycle" depart="74.72" departLane="best" from="71376575#1" to="544620987#0"/>
    <trip id="moto96" type="moto_motorcycle" depart="75.50" departLane="best" from="544621050" to="544779564#0"/>
    <trip id="moto97" type="moto_motorcycle" depart="76.29" departLane="best" from="732572831" to="546367935#0"/>
    <trip id="moto98" type="moto_motorcycle" depart="77.08" departLane="best" from="-544620960#2" to="-704521312#0"/>
    <trip id="moto99" type="moto_motorcycle" depart="77.86" departLane="best" from="611398276#5" to="220285690#6"/>
    <trip id="moto100" type="moto_motorcycle" depart="78.65" departLane="best" departSpeed="max" from="707247682#0" to="-220959967#0"/>
    <trip id="moto101" type="moto_motorcycle" depart="79.44" departLane="best" departSpeed="max" from="-707247683#1" to="482092794#15"/>
    <trip id="moto102" type="moto_motorcycle" depart="80.22" departLane="best" from="732597278#0" to="-732598401"/>
    <trip id="moto103" type="moto_motorcycle" depart="81.01" departLane="best" from="544779590" to="220536384#1"/>
    <trip id="moto104" type="moto_motorcycle" depart="81.80" departLane="best" from="-220285690#4" to="220536354#18"/>
    <trip id="moto105" type="moto_motorcycle" depart="82.58" departLane="best" from="220285683#1" to="220536326#5"/>
    <trip id="moto106" type="moto_motorcycle" depart="83.37" departLane="best" from="704147961#1" to="707235527#0"/>
    <trip id="moto107" type="moto_motorcycle" depart="84.15" departLane="best" from="611415890#3" to="-611415893#5"/>
    <trip id="moto108" type="moto_motorcycle" depart="84.94" departLane="best" from="544779590" to="-220536394#0"/>
    <trip id="moto109" type="moto_motorcycle" depart="85.73" departLane="best" from="953809142" to="755748202"/>
    <trip id="moto110" type="moto_motorcycle" depart="86.51" departLane="best" departSpeed="max" from="-732830923" to="732572845"/>
    <trip id="moto111" type="moto_motorcycle" depart="87.30" departLane="best" from="-707247683#0" to="-220959863"/>
    <trip id="moto112" type="moto_motorcycle" depart="88.09" departLane="best" from="546905391" to="220476164"/>
    <trip id="moto113" type="moto_motorcycle" depart="88.87" departLane="best" from="220285717#0" to="220959969#1"/>
    <trip id="moto114" type="moto_motorcycle" depart="89.66" departLane="best" from="704513869#6" to="482092794#0"/>
    <trip id="moto115" type="moto_motorcycle" depart="90.45" departLane="best" from="-220536381#1" to="-220476160"/>
    <trip id="moto116" type="moto_motorcycle" depart="91.23" departLane="best" from="546367935#0" to="732830911"/>
    <trip id="moto117" type="moto_motorcycle" depart="92.02" departLane="best" departSpeed="max" from="-732572845" to="-732572868#0"/>
    <trip id="moto118" type="moto_motorcycle" depart="92.81" departLane="best" from="220959854#2" to="220285720"/>
    <trip id="moto119" type="moto_motorcycle" depart="93.59" departLane="best" from="-545736276#2" to="220536327#4"/>
    <trip id="moto120" type="moto_motorcycle" depart="94.38" departLane="best" from="-778936907#8" to="220285707#2"/>
    <trip id="moto121" type="moto_motorcycle" depart="95.17" departLane="best" departSpeed="max" from="-732598404" to="732598394"/>
    <trip id="moto122" type="moto_motorcycle" depart="95.95" departLane="best" from="-732830915#0" to="59740755#0"/>
    <trip id="moto123" type="moto_motorcycle" depart="96.74" departLane="best" from="220959973#0" to="-220285711#5"/>
    <trip id="moto124" type="moto_motorcycle" depart="97.53" departLane="best" from="-732595391" to="-732598414"/>
    <trip id="moto125" type="moto_motorcycle" depart="98.31" departLane="best" from="482092794#18" to="-732958963"/>
    <trip id="moto126" type="moto_motorcycle" depart="99.10" departLane="best" from="-220959824#2" to="953809144#2"/>
    <trip id="moto127" type="moto_motorcycle" depart="99.88" departLane="best" from="-220536407#1" to="546367869"/>
    <trip id="moto128" type="moto_motorcycle" depart="100.67" departLane="best" departSpeed="max" from="-732572836" to="-732572832#0"/>
    <trip id="moto129" type="moto_motorcycle" depart="101.46" departLane="best" from="611415890#5" to="755749146#1"/>
    <trip id="moto130" type="moto_motorcycle" depart="102.24" departLane="best" from="732830947" to="704147950#5"/>
    <trip id="moto131" type="moto_motorcycle" depart="103.03" departLane="best" from="-707235527#4" to="732572830#0"/>
    <trip id="moto132" type="moto_motorcycle" depart="103.82" departLane="best" from="-220536391#2" to="220959824#2"/>
    <trip id="moto133" type="moto_motorcycle" depart="104.60" departLane="best" from="220959935#1" to="220536410#4"/>
    <trip id="moto134" type="moto_motorcycle" depart="105.39" departLane="best" from="544779564#0" to="-220959859#1"/>
    <trip id="moto135" type="moto_motorcycle" depart="106.18" departLane="best" from="704147950#10" to="732830949"/>
    <trip id="moto136" type="moto_motorcycle" depart="106.96" departLane="best" from="-220476159#0" to="220476170#2"/>
    <trip id="moto137" type="moto_motorcycle" depart="107.75" departLane="best" from="220536354#13" to="596311691#1"/>
    <trip id="moto138" type="moto_motorcycle" depart="108.54" departLane="best" from="-220476170#1" to="755748204"/>
    <trip id="moto139" type="moto_motorcycle" depart="109.32" departLane="best" departSpeed="max" from="-732830930#3" to="732572829#1"/>
    <trip id="moto140" type="moto_motorcycle" depart="110.11" departLane="best" from="-544621016" to="732572843"/>
    <trip id="moto141" type="moto_motorcycle" depart="110.90" departLane="best" from="544634586" to="220959815#4"/>
    <trip id="moto142" type="moto_motorcycle" depart="111.68" departLane="best" from="gneE1" to="220401029#1"/>
    <trip id="moto143" type="moto_motorcycle" depart="112.47" departLane="best" departSpeed="max" from="-220959975" to="-732932533"/>
    <trip id="moto144" type="moto_motorcycle" depart="113.26" departLane="best" from="220285709#0" to="482092794#17"/>
    <trip id="moto145" type="moto_motorcycle" depart="114.04" departLane="best" from="-220476164" to="-220285717#0"/>
    <trip id="moto146" type="moto_motorcycle" depart="114.83" departLane="best" from="-220285671#1" to="220536326#1"/>
    <trip id="moto147" type="moto_motorcycle" depart="115.61" departLane="best" from="220959917#6" to="220959976#2"/>
    <trip id="moto148" type="moto_motorcycle" depart="116.40" departLane="best" from="-544779590" to="220536383#0"/>
    <trip id="moto149" type="moto_motorcycle" depart="117.19" departLane="best" from="635392915#2" to="-220695226#0"/>
    <trip id="moto150" type="moto_motorcycle" depart="117.97" departLane="best" from="220476169#4" to="732572823#1"/>
    <trip id="moto151" type="moto_motorcycle" depart="118.76" departLane="best" from="-220536388#2" to="-482092794#12"/>
    <trip id="moto152" type="moto_motorcycle" depart="119.55" departLane="best" departSpeed="max" from="-220959943#1" to="967234363#4"/>
    <trip id="moto153" type="moto_motorcycle" depart="120.33" departLane="best" from="755749146#0" to="-953809141#1"/>
    <trip id="moto154" type="moto_motorcycle" depart="121.12" departLane="best" departSpeed="max" from="-544620997" to="220285690#6"/>
    <trip id="moto155" type="moto_motorcycle" depart="121.91" departLane="best" from="-220536411#3" to="220959939#6"/>
    <trip id="moto156" type="moto_motorcycle" depart="122.69" departLane="best" from="-220536326#2" to="220285671#8"/>
    <trip id="moto157" type="moto_motorcycle" depart="123.48" departLane="best" from="-220959824#1" to="-732830912#0"/>
    <trip id="moto158" type="moto_motorcycle" depart="124.27" departLane="best" from="-704525160" to="-755748618"/>
    <trip id="moto159" type="moto_motorcycle" depart="125.05" departLane="best" from="-220959854#2" to="220959824#1"/>
    <trip id="moto160" type="moto_motorcycle" depart="125.84" departLane="best" from="220536327#0" to="220536411#2"/>
    <trip id="moto161" type="moto_motorcycle" depart="126.63" departLane="best" from="220959876#1" to="704511328#0"/>
    <trip id="moto162" type="moto_motorcycle" depart="127.41" departLane="best" from="967234360#2" to="610262461"/>
    <trip id="moto163" type="moto_motorcycle" depart="128.20" departLane="best" from="220285728#1" to="755752097"/>
    <trip id="moto164" type="moto_motorcycle" depart="128.99" departLane="best" from="220536326#5" to="-778936907#6"/>
    <trip id="moto165" type="moto_motorcycle" depart="129.77" departLane="best" from="-220536324#2" to="-220959815#3"/>
    <trip id="moto167" type="moto_motorcycle" depart="131.34" departLane="best" from="gneE2" to="220959808"/>
    <trip id="moto168" type="moto_motorcycle" depart="132.13" departLane="best" from="-220476154#4" to="-732985490"/>
    <trip id="moto169" type="moto_motorcycle" depart="132.92" departLane="best" from="-220285671#2" to="-220959959#0"/>
    <trip id="moto170" type="moto_motorcycle" depart="133.70" departLane="best" from="220285713#1" to="-220959861"/>
    <trip id="moto171" type="moto_motorcycle" depart="134.49" departLane="best" departSpeed="max" from="-732987947" to="-732958969#1"/>
    <trip id="moto172" type="moto_motorcycle" depart="135.28" departLane="best" from="980720226#1" to="732572868#2"/>
    <trip id="moto173" type="moto_motorcycle" depart="136.06" departLane="best" from="371878381#4" to="732598396#0"/>
    <trip id="moto174" type="moto_motorcycle" depart="136.85" departLane="best" from="688874074#0" to="59777955#1"/>
    <trip id="moto175" type="moto_motorcycle" depart="137.64" departLane="best" from="732830908#1" to="-220536411#6"/>
    <trip id="moto176" type="moto_motorcycle" depart="138.42" departLane="best" departSpeed="max" from="-732598411#1" to="220959876#1"/>
    <trip id="moto177" type="moto_motorcycle" depart="139.21" departLane="best" from="-220401035#0" to="-220959809#2"/>
    <trip id="moto178" type="moto_motorcycle" depart="140.00" departLane="best" from="755750537#1" to="-704147961#2"/>
    <trip id="moto179" type="moto_motorcycle" depart="140.78" departLane="best" from="307329904#1" to="-157111468#0"/>
    <trip id="moto180" type="moto_motorcycle" depart="141.57" departLane="best" from="-732958962" to="-220959942#1"/>
    <trip id="moto181" type="moto_motorcycle" depart="142.36" departLane="best" from="545448779#1" to="-220959815#5"/>
    <trip id="moto182" type="moto_motorcycle" depart="143.14" departLane="best" from="220959969#0" to="732830909#2"/>
    <trip id="moto183" type="moto_motorcycle" depart="143.93" departLane="best" from="-220536407#1" to="-220959812"/>
    <trip id="moto184" type="moto_motorcycle" depart="144.71" departLane="best" from="611415890#1" to="220959922"/>
    <trip id="moto185" type="moto_motorcycle" depart="145.50" departLane="best" from="-220476154#6" to="732932529"/>
    <trip id="moto186" type="moto_motorcycle" depart="146.29" departLane="best" from="220536327#6" to="220536384#2"/>
    <trip id="moto187" type="moto_motorcycle" depart="147.07" departLane="best" from="704523453" to="220536326#3"/>
    <trip id="moto188" type="moto_motorcycle" depart="147.86" departLane="best" from="220536411#6" to="220476168#1"/>
    <trip id="moto189" type="moto_motorcycle" depart="148.65" departLane="best" from="-220536399#3" to="220536404#1"/>
    <trip id="moto190" type="moto_motorcycle" depart="149.43" departLane="best" from="220959953" to="-220536326#4"/>
    <trip id="moto191" type="moto_motorcycle" depart="150.22" departLane="best" from="239342270#0" to="704523453"/>
    <trip id="moto192" type="moto_motorcycle" depart="151.01" departLane="best" from="-220536406#3" to="220285671#8"/>
    <trip id="moto193" type="moto_motorcycle" depart="151.79" departLane="best" from="220476153#0" to="-220536391#1"/>
    <trip id="moto194" type="moto_motorcycle" depart="152.58" departLane="best" from="191446785#0" to="220959831#3"/>
    <trip id="moto195" type="moto_motorcycle" depart="153.37" departLane="best" from="-220959815#3" to="220959859#1"/>
    <trip id="moto196" type="moto_motorcycle" depart="154.15" departLane="best" from="707247686" to="953809143#1"/>
    <trip id="moto197" type="moto_motorcycle" depart="154.94" departLane="best" from="755749142#3" to="-220536357#2"/>
    <trip id="moto198" type="moto_motorcycle" depart="155.73" departLane="best" departSpeed="max" from="-546365125" to="220959824#1"/>
    <trip id="moto199" type="moto_motorcycle" depart="156.51" departLane="best" from="755748200" to="-157111468#1"/>
    <trip id="moto200" type="moto_motorcycle" depart="157.30" departLane="best" from="220285690#12" to="-732572841"/>
    <trip id="moto201" type="moto_motorcycle" depart="158.09" departLane="best" departSpeed="max" from="707247682#0" to="704147945"/>
    <trip id="moto203" type="moto_motorcycle" depart="159.66" departLane="best" from="-220959943#0" to="-220285671#3"/>
    <trip id="moto204" type="moto_motorcycle" depart="160.44" departLane="best" from="-220285707#0" to="-220536326#0"/>
    <trip id="moto205" type="moto_motorcycle" depart="161.23" departLane="best" from="732830915#0" to="-220285717#3"/>
    <trip id="moto206" type="moto_motorcycle" depart="162.02" departLane="best" from="220285683#0" to="307329904#1"/>
    <trip id="moto207" type="moto_motorcycle" depart="162.80" departLane="best" from="94800093#10" to="-220959810#1"/>
    <trip id="moto208" type="moto_motorcycle" depart="163.59" departLane="best" from="-482092794#2" to="220959928#1"/>
    <trip id="moto209" type="moto_motorcycle" depart="164.38" departLane="best" from="732830911" to="220476152#0"/>
    <trip id="moto210" type="moto_motorcycle" depart="165.16" departLane="best" departSpeed="max" from="-220536409#2" to="-732572822"/>
    <trip id="moto211" type="moto_motorcycle" depart="165.95" departLane="best" from="-546367869" to="-220959939#2"/>
    <trip id="moto212" type="moto_motorcycle" depart="166.74" departLane="best" from="482092794#8" to="732958965"/>
    <trip id="moto213" type="moto_motorcycle" depart="167.52" departLane="best" from="732597254#0" to="-732845176"/>
    <trip id="moto214" type="moto_motorcycle" depart="168.31" departLane="best" from="755752096#1" to="-755748196#1"/>
    <trip id="moto215" type="moto_motorcycle" depart="169.10" departLane="best" from="704521313#3" to="-707231897#1"/>
    <trip id="moto216" type="moto_motorcycle" depart="169.88" departLane="best" from="220536324#1" to="-544779586#0"/>
    <trip id="moto217" type="moto_motorcycle" depart="170.67" departLane="best" departSpeed="max" from="755748196#0" to="755748204"/>
    <trip id="moto218" type="moto_motorcycle" depart="171.46" departLane="best" from="778936907#6" to="-220285713#2"/>
    <trip id="moto219" type="moto_motorcycle" depart="172.24" departLane="best" from="-220959945" to="707313622#2"/>
    <trip id="moto220" type="moto_motorcycle" depart="173.03" departLane="best" departSpeed="max" from="-704521313#4" to="953809144#1"/>
    <trip id="moto221" type="moto_motorcycle" depart="173.82" departLane="best" from="-220959810#1" to="220401029#12"/>
    <trip id="moto222" type="moto_motorcycle" depart="174.60" departLane="best" from="220959969#3" to="-482092794#13"/>
    <trip id="moto223" type="moto_motorcycle" depart="175.39" departLane="best" from="732830934#2" to="-371878363#6"/>
    <trip id="moto224" type="moto_motorcycle" depart="176.17" departLane="best" from="-704521313#3" to="-220401029#8"/>
    <trip id="moto225" type="moto_motorcycle" depart="176.96" departLane="best" from="-220536410#1" to="220536410#3"/>
    <trip id="moto226" type="moto_motorcycle" depart="177.75" departLane="best" departSpeed="max" from="-732572839" to="220285713#0"/>
    <trip id="moto227" type="moto_motorcycle" depart="178.53" departLane="best" from="-220536324#0" to="732572823#1"/>
    <trip id="moto228" type="moto_motorcycle" depart="179.32" departLane="best" from="220285693#2" to="732830921"/>
    <trip id="moto229" type="moto_motorcycle" depart="180.11" departLane="best" from="707247681" to="610262461"/>
    <trip id="moto230" type="moto_motorcycle" depart="180.89" departLane="best" from="-732958965" to="967234363#3"/>
    <trip id="moto231" type="moto_motorcycle" depart="181.68" departLane="best" departSpeed="max" from="-732597285" to="-732597283"/>
    <trip id="moto232" type="moto_motorcycle" depart="182.47" departLane="best" from="-755749142#2" to="732830931"/>
    <trip id="moto233" type="moto_motorcycle" depart="183.25" departLane="best" from="191453143" to="371878372"/>
    <trip id="moto234" type="moto_motorcycle" depart="184.04" departLane="best" departSpeed="max" from="-732830923" to="220959934#1"/>
    <trip id="moto235" type="moto_motorcycle" depart="184.83" departLane="best" from="611398276#6" to="611415890#0"/>
    <trip id="moto236" type="moto_motorcycle" depart="185.61" departLane="best" from="-707247685" to="220285715#0"/>
    <trip id="moto237" type="moto_motorcycle" depart="186.40" departLane="best" from="-220536326#3" to="967234363#4"/>
    <trip id="moto238" type="moto_motorcycle" depart="187.19" departLane="best" from="220959815#3" to="732830912#1"/>
    <trip id="moto239" type="moto_motorcycle" depart="187.97" departLane="best" from="707247684#0" to="220959942#1"/>
    <trip id="moto240" type="moto_motorcycle" depart="188.76" departLane="best" from="544620981" to="544621037"/>
    <trip id="moto241" type="moto_motorcycle" depart="189.55" departLane="best" from="980722084" to="-732591759#1"/>
    <trip id="moto242" type="moto_motorcycle" depart="190.33" departLane="best" from="-732958955#0" to="-778936907#4"/>
    <trip id="moto243" type="moto_motorcycle" depart="191.12" departLane="best" from="220401030#0" to="-611415893#2"/>
    <trip id="moto244" type="moto_motorcycle" depart="191.90" departLane="best" from="220888388" to="-191446780#1"/>
    <trip id="moto245" type="moto_motorcycle" depart="192.69" departLane="best" from="-732572858#1" to="732572843"/>
    <trip id="moto246" type="moto_motorcycle" depart="193.48" departLane="best" from="778936907#6" to="-755752096#0"/>