<?xml version="1.0" encoding="UTF-8"?>
<!-- generated on 2021-11-21 17:04:06.056079 by $Id$ v1_10_0+0000-83496a5972
  options: -n rize.net.xml -r rize.rou.xml -e 50 -l
-->
<routes xmlns:xsi="http://www.w3.org/2001/XMLSchema-instance" xsi:noNamespaceSchemaLocation="http://sumo.dlr.de/xsd/routes_file.xsd">
    <trip id="0" depart="0.00" from="220959929" to="-220285723#4"/>
    <trip id="1" depart="1.00" from="-707231895#0" to="-482092794#14"/>
    <trip id="2" depart="2.00" from="482092794#0" to="371878363#4"/>
    <trip id="3" depart="3.00" from="732830934#2" to="-220959822"/>
    <trip id="4" depart="4.00" from="-778936907#7" to="-220401029#26"/>
    <trip id="5" depart="5.00" from="-482092794#5" to="220476167"/>
    <trip id="6" depart="6.00" from="-220401029#9" to="-371878381#0"/>
    <trip id="7" depart="7.00" from="220959971" to="220536383#1"/>
    <trip id="8" depart="8.00" from="-544620988" to="220959847"/>
    <trip id="9" depart="9.00" from="704523453" to="-220285690#15"/>
    <trip id="10" depart="10.00" from="704521313#4" to="371878381#1"/>
    <trip id="11" depart="11.00" from="-732830915#1" to="-239342270#2"/>
    <trip id="12" depart="12.00" from="94800093#12" to="-732832470"/>
    <trip id="13" depart="13.00" from="-220959833#0" to="-220959833#0"/>
    <trip id="14" depart="14.00" from="732572823#0" to="220959924"/>
    <trip id="15" depart="15.00" from="704523448#3" to="610262463"/>
    <trip id="16" depart="16.00" from="220476157" to="953809144#2"/>
    <trip id="17" depart="17.00" from="-732932552" to="220536404#1"/>
    <trip id="18" depart="18.00" from="707313622#1" to="220959974#1"/>
    <trip id="19" depart="19.00" from="732572842#1" to="220959833#0"/>
    <trip id="20" depart="20.00" from="371878363#6" to="-220476159#2"/>
    <trip id="21" depart="21.00" from="-584545371#0" to="-732572841"/>
    <trip id="22" depart="22.00" from="-220959816#1" to="-546367936"/>
    <trip id="23" depart="23.00" from="-220959838#0" to="-732572823#0"/>
    <trip id="24" depart="24.00" from="220959917#4" to="-755748620"/>
    <trip id="25" depart="25.00" from="-732932525" to="-482092794#0"/>
    <trip id="26" depart="26.00" from="-704521313#1" to="755749142#1"/>
    <trip id="27" depart="27.00" from="220959966#1" to="220959942#1"/>
    <trip id="28" depart="28.00" from="-307329892#1" to="610262463"/>
    <trip id="29" depart="29.00" from="-288807640#0" to="-755752107"/>
    <trip id="30" depart="30.00" from="980722084" to="239341342#1"/>
    <trip id="31" depart="31.00" from="220536354#0" to="371878372"/>
    <trip id="32" depart="32.00" from="71376575#0" to="704147961#3"/>
    <trip id="33" depart="33.00" from="-596311691#1" to="-220401029#30"/>
    <trip id="34" depart="34.00" from="-732572850" to="-704525457"/>
    <trip id="35" depart="35.00" from="-371878381#1" to="755752096#1"/>
    <trip id="36" depart="36.00" from="732572863" to="-732830917#1"/>
    <trip id="37" depart="37.00" from="239341338" to="-94800093#9"/>
    <trip id="38" depart="38.00" from="732932532" to="220285678#3"/>
    <trip id="39" depart="39.00" from="-704515411#2" to="-704147950#1"/>
    <trip id="40" depart="40.00" from="220536354#18" to="-704523448#0"/>
    <trip id="41" depart="41.00" from="220536406#0" to="732830938"/>
    <trip id="42" depart="42.00" from="-755748622" to="-482092794#0"/>
    <trip id="43" depart="43.00" from="980722084" to="220536324#2"/>
    <trip id="44" depart="44.00" from="-220959833#0" to="-220476159#4"/>
    <trip id="45" depart="45.00" from="-220959910" to="239341338"/>
    <trip id="46" depart="46.00" from="704147950#5" to="157111158#0"/>
    <trip id="47" depart="47.00" from="-220536396" to="-778936907#2"/>
    <trip id="48" depart="48.00" from="980722084" to="220536354#18"/>
    <trip id="49" depart="49.00" from="953809144#2" to="732572859#0"/>
</routes>
