<?xml version="1.0" encoding="UTF-8"?>
<!-- generated on 2021-10-29 16:30:18.499000 by $Id$ v1_10_0+0000-83496a5972
  options: -n osm.net.xml <doubleminus>fringe-factor 1 -p 0.331220 -o osm.pedestrian.trips.xml -e 3600 -r osm.pedestrian.rou.xml <doubleminus>vehicle-class pedestrian <doubleminus>pedestrians <doubleminus>prefix ped <doubleminus>max-distance 2000
-->
<routes xmlns:xsi="http://www.w3.org/2001/XMLSchema-instance" xsi:noNamespaceSchemaLocation="http://sumo.dlr.de/xsd/routes_file.xsd">
    <vType id="ped_pedestrian" vClass="pedestrian"/>
    <person id="ped0" depart="0.00" type="ped_pedestrian">
        <walk from="732830950#1" to="-220536410#3"/>
    </person>
    <person id="ped1" depart="0.33" type="ped_pedestrian">
        <walk from="-755749149" to="-220285713#3"/>
    </person>
    <person id="ped2" depart="0.66" type="ped_pedestrian">
        <walk from="-732830912#1" to="-220959990#0"/>
    </person>
    <person id="ped3" depart="0.99" type="ped_pedestrian">
        <walk from="545448779#2" to="-220401029#8"/>
    </person>
    <person id="ped4" depart="1.32" type="ped_pedestrian">
        <walk from="-220536404#1" to="-704521312#2"/>
    </person>
    <person id="ped5" depart="1.66" type="ped_pedestrian">
        <walk from="220959966#1" to="220959871"/>
    </person>
    <person id="ped6" depart="1.99" type="ped_pedestrian">
        <walk from="220536399#0" to="482092794#18"/>
    </person>
    <person id="ped7" depart="2.32" type="ped_pedestrian">
        <walk from="-688874074#0" to="732987938#3"/>
    </person>
    <person id="ped8" depart="2.65" type="ped_pedestrian">
        <walk from="220536406#3" to="-732572852"/>
    </person>
    <person id="ped9" depart="2.98" type="ped_pedestrian">
        <walk from="732572836" to="-755749415"/>
    </person>
    <person id="ped10" depart="3.31" type="ped_pedestrian">
        <walk from="859594424#0" to="732598432"/>
    </person>
    <person id="ped11" depart="3.64" type="ped_pedestrian">
        <walk from="-220285690#0" to="611398276#5"/>
    </person>
    <person id="ped12" depart="3.97" type="ped_pedestrian">
        <walk from="482088687#1" to="220536354#0"/>
    </person>
    <person id="ped13" depart="4.31" type="ped_pedestrian">
        <walk from="-220959836" to="-94800093#1"/>
    </person>
    <person id="ped14" depart="4.64" type="ped_pedestrian">
        <walk from="220285724#1" to="-482092794#20"/>
    </person>
    <person id="ped15" depart="4.97" type="ped_pedestrian">
        <walk from="220959869" to="-220959976#1"/>
    </person>
    <person id="ped16" depart="5.30" type="ped_pedestrian">
        <walk from="704523448#3" to="220536354#16"/>
    </person>
    <person id="ped17" depart="5.63" type="ped_pedestrian">
        <walk from="707247686" to="220536324#2"/>
    </person>
    <person id="ped18" depart="5.96" type="ped_pedestrian">
        <walk from="-127482092#2" to="-732598427#1"/>
    </person>
    <person id="ped19" depart="6.29" type="ped_pedestrian">
        <walk from="732830919" to="751974270#2"/>
    </person>
    <person id="ped20" depart="6.62" type="ped_pedestrian">
        <walk from="-220536409#2" to="220285707#4"/>
    </person>
    <person id="ped21" depart="6.96" type="ped_pedestrian">
        <walk from="220285690#14" to="220536383#0"/>
    </person>
    <person id="ped22" depart="7.29" type="ped_pedestrian">
        <walk from="220536354#15" to="612003762#0"/>
    </person>
    <person id="ped23" depart="7.62" type="ped_pedestrian">
        <walk from="-220536383#2" to="220959932#1"/>
    </person>
    <person id="ped24" depart="7.95" type="ped_pedestrian">
        <walk from="-704147950#3" to="-220959927#1"/>
    </person>
    <person id="ped25" depart="8.28" type="ped_pedestrian">
        <walk from="-220959811#2" to="-778936907#0"/>
    </person>
    <person id="ped26" depart="8.61" type="ped_pedestrian">
        <walk from="-755750538#1" to="220285671#2"/>
    </person>
    <person id="ped27" depart="8.94" type="ped_pedestrian">
        <walk from="967234360#1" to="-220959811#6"/>
    </person>
    <person id="ped28" depart="9.27" type="ped_pedestrian">
        <walk from="220536397#1" to="610262466#0"/>
    </person>
    <person id="ped29" depart="9.61" type="ped_pedestrian">
        <walk from="-220476167" to="220959818#0"/>
    </person>
    <person id="ped30" depart="9.94" type="ped_pedestrian">
        <walk from="-220536404#2" to="-544620983"/>
    </person>
    <person id="ped31" depart="10.27" type="ped_pedestrian">
        <walk from="-610262463" to="610262461"/>
    </person>
    <person id="ped32" depart="10.60" type="ped_pedestrian">
        <walk from="-704525457" to="-732985478"/>
    </person>
    <person id="ped33" depart="10.93" type="ped_pedestrian">
        <walk from="-732598402#1" to="704511331#2"/>
    </person>
    <person id="ped34" depart="11.26" type="ped_pedestrian">
        <walk from="-220536391#0" to="-704147949"/>
    </person>
    <person id="ped35" depart="11.59" type="ped_pedestrian">
        <walk from="732830928#0" to="732830923"/>
    </person>
    <person id="ped36" depart="11.92" type="ped_pedestrian">
        <walk from="732591760" to="-732597269#0"/>
    </person>
    <person id="ped37" depart="12.26" type="ped_pedestrian">
        <walk from="-220959933" to="-220959856"/>
    </person>
    <person id="ped38" depart="12.59" type="ped_pedestrian">
        <walk from="-220959830#2" to="220536391#2"/>
    </person>
    <person id="ped39" depart="12.92" type="ped_pedestrian">
        <walk from="610262465#0" to="-610262461"/>
    </person>
    <person id="ped40" depart="13.25" type="ped_pedestrian">
        <walk from="704147950#7" to="220536388#0"/>
    </person>
    <person id="ped41" depart="13.58" type="ped_pedestrian">
        <walk from="-755752101#0" to="-220285671#4"/>
    </person>
    <person id="ped42" depart="13.91" type="ped_pedestrian">
        <walk from="-220536394#1" to="732830931"/>
    </person>
    <person id="ped43" depart="14.24" type="ped_pedestrian">
        <walk from="732932526" to="220536369#0"/>
    </person>
    <person id="ped44" depart="14.57" type="ped_pedestrian">
        <walk from="707313622#1" to="732830934#0"/>
    </person>
    <person id="ped45" depart="14.90" type="ped_pedestrian">
        <walk from="732574218#1" to="732830928#1"/>
    </person>
    <person id="ped46" depart="15.24" type="ped_pedestrian">
        <walk from="732574218#0" to="-732572859#1"/>
    </person>
    <person id="ped47" depart="15.57" type="ped_pedestrian">
        <walk from="732572823#0" to="-220959830#6"/>
    </person>
    <person id="ped48" depart="15.90" type="ped_pedestrian">
        <walk from="-732598437" to="732624606"/>
    </person>
    <person id="ped49" depart="16.23" type="ped_pedestrian">
        <walk from="953809141#1" to="220536344"/>
    </person>
    <person id="ped50" depart="16.56" type="ped_pedestrian">
        <walk from="-220959830#7" to="-94800093#1"/>
    </person>
    <person id="ped51" depart="16.89" type="ped_pedestrian">
        <walk from="-732958959" to="220959811#0"/>
    </person>
    <person id="ped52" depart="17.22" type="ped_pedestrian">
        <walk from="-732572830#1" to="546367935#0"/>
    </person>
    <person id="ped53" depart="17.55" type="ped_pedestrian">
        <walk from="220536354#13" to="611398276#0"/>
    </person>
    <person id="ped54" depart="17.89" type="ped_pedestrian">
        <walk from="-732598395" to="732598394"/>
    </person>
    <person id="ped55" depart="18.22" type="ped_pedestrian">
        <walk from="-220959917#5" to="-755749142#2"/>
    </person>
    <person id="ped56" depart="18.55" type="ped_pedestrian">
        <walk from="-127482092#2" to="-732595391"/>
    </person>
    <person id="ped57" depart="18.88" type="ped_pedestrian">
        <walk from="732572847#1" to="-371878372"/>
    </person>
    <person id="ped58" depart="19.21" type="ped_pedestrian">
        <walk from="-220536409#0" to="220401038"/>
    </person>
    <person id="ped59" depart="19.54" type="ped_pedestrian">
        <walk from="-707235527#8" to="220285690#14"/>
    </person>
    <person id="ped60" depart="19.87" type="ped_pedestrian">
        <walk from="-545235922#2" to="544634586"/>
    </person>
    <person id="ped61" depart="20.20" type="ped_pedestrian">
        <walk from="220285713#3" to="-707235527#4"/>
    </person>
    <person id="ped62" depart="20.54" type="ped_pedestrian">
        <walk from="220476152#0" to="-220476153#1"/>
    </person>
    <person id="ped63" depart="20.87" type="ped_pedestrian">
        <walk from="732832469" to="704147958#1"/>
    </person>
    <person id="ped64" depart="21.20" type="ped_pedestrian">
        <walk from="220285690#13" to="-732572842#2"/>
    </person>
    <person id="ped65" depart="21.53" type="ped_pedestrian">
        <walk from="-707247684#2" to="220959943#1"/>
    </person>
    <person id="ped66" depart="21.86" type="ped_pedestrian">
        <walk from="704524429#1" to="220476156"/>
    </person>
    <person id="ped67" depart="22.19" type="ped_pedestrian">
        <walk from="220536354#18" to="-220959940"/>
    </person>
    <person id="ped68" depart="22.52" type="ped_pedestrian">
        <walk from="545736283#0" to="-220536357#1"/>
    </person>
    <person id="ped69" depart="22.85" type="ped_pedestrian">
        <walk from="-755748196#1" to="-611415893#3"/>
    </person>
    <person id="ped70" depart="23.19" type="ped_pedestrian">
        <walk from="-755749142#1" to="732932531"/>
    </person>
    <person id="ped71" depart="23.52" type="ped_pedestrian">
        <walk from="220959818#0" to="544621037"/>
    </person>
    <person id="ped72" depart="23.85" type="ped_pedestrian">
        <walk from="-755748702" to="704147961#9"/>
    </person>
    <person id="ped73" depart="24.18" type="ped_pedestrian">
        <walk from="220536371" to="220959852"/>
    </person>
    <person id="ped74" depart="24.51" type="ped_pedestrian">
        <walk from="-704147961#6" to="-704147961#2"/>
    </person>
    <person id="ped75" depart="24.84" type="ped_pedestrian">
        <walk from="220285671#4" to="-220959917#6"/>
    </person>
    <person id="ped76" depart="25.17" type="ped_pedestrian">
        <walk from="-732572823#1" to="-220536407#0"/>
    </person>
    <person id="ped77" depart="25.50" type="ped_pedestrian">
        <walk from="-220285701#2" to="220536354#16"/>
    </person>
    <person id="ped78" depart="25.84" type="ped_pedestrian">
        <walk from="gneE2" to="-732830936"/>
    </person>
    <person id="ped79" depart="26.17" type="ped_pedestrian">
        <walk from="755748199" to="-546365125"/>
    </person>
    <person id="ped80" depart="26.50" type="ped_pedestrian">
        <walk from="-220959917#2" to="307329896"/>
    </person>
    <person id="ped81" depart="26.83" type="ped_pedestrian">
        <walk from="-371878363#6" to="220959864"/>
    </person>
    <person id="ped82" depart="27.16" type="ped_pedestrian">
        <walk from="-220959830#6" to="-220285712#12"/>
    </person>
    <person id="ped83" depart="27.49" type="ped_pedestrian">
        <walk from="-732598389" to="371878377"/>
    </person>
    <person id="ped84" depart="27.82" type="ped_pedestrian">
        <walk from="59740755#5" to="-220536397#0"/>
    </person>
    <person id="ped85" depart="28.15" type="ped_pedestrian">
        <walk from="544620964#0" to="220959921#1"/>
    </person>
    <person id="ped86" depart="28.48" type="ped_pedestrian">
        <walk from="708204876#0" to="-732830930#2"/>
    </person>
    <person id="ped87" depart="28.82" type="ped_pedestrian">
        <walk from="-755752102" to="-732932535"/>
    </person>
    <person id="ped88" depart="29.15" type="ped_pedestrian">
        <walk from="220401029#14" to="-732830914"/>
    </person>
    <person id="ped89" depart="29.48" type="ped_pedestrian">
        <walk from="732598398" to="732597244#1"/>
    </person>
    <person id="ped90" depart="29.81" type="ped_pedestrian">
        <walk from="-220959824#3" to="755752098"/>
    </person>
    <person id="ped91" depart="30.14" type="ped_pedestrian">
        <walk from="688874072#3" to="778936907#4"/>
    </person>
    <person id="ped92" depart="30.47" type="ped_pedestrian">
        <walk from="-732572866#2" to="732574214#0"/>
    </person>
    <person id="ped93" depart="30.80" type="ped_pedestrian">
        <walk from="220536354#12" to="220285704#0"/>
    </person>
    <person id="ped94" depart="31.13" type="ped_pedestrian">
        <walk from="732830929#0" to="-707235527#4"/>
    </person>
    <person id="ped95" depart="31.47" type="ped_pedestrian">
        <walk from="-732830912#1" to="732830926"/>
    </person>
    <person id="ped96" depart="31.80" type="ped_pedestrian">
        <walk from="-220285671#5" to="755748195"/>
    </person>
    <person id="ped97" depart="32.13" type="ped_pedestrian">
        <walk from="-220536409#2" to="611398276#3"/>
    </person>
    <person id="ped98" depart="32.46" type="ped_pedestrian">
        <walk from="544620964#0" to="220959959#1"/>
    </person>
    <person id="ped99" depart="32.79" type="ped_pedestrian">
        <walk from="220959815#4" to="220285690#0"/>
    </person>
    <person id="ped100" depart="33.12" type="ped_pedestrian">
        <walk from="-544860357" to="-220959875#2"/>
    </person>
    <person id="ped101" depart="33.45" type="ped_pedestrian">
        <walk from="220285704#2" to="611415890#1"/>
    </person>
    <person id="ped102" depart="33.78" type="ped_pedestrian">
        <walk from="-482092794#5" to="-220285690#16"/>
    </person>
    <person id="ped103" depart="34.12" type="ped_pedestrian">
        <walk from="544779566" to="-220959917#2"/>
    </person>
    <person id="ped104" depart="34.45" type="ped_pedestrian">
        <walk from="732830909#0" to="220959807#0"/>
    </person>
    <person id="ped105" depart="34.78" type="ped_pedestrian">
        <walk from="220285678#3" to="-953809141#0"/>
    </person>
    <person id="ped106" depart="35.11" type="ped_pedestrian">
        <walk from="-220536393#0" to="220959927#1"/>
    </person>
    <person id="ped107" depart="35.44" type="ped_pedestrian">
        <walk from="-220476158" to="-220959967#3"/>
    </person>
    <person id="ped108" depart="35.77" type="ped_pedestrian">
        <walk from="704524428#1" to="220959861"/>
    </person>
    <person id="ped109" depart="36.10" type="ped_pedestrian">
        <walk from="220959917#3" to="220959872"/>
    </person>
    <person id="ped110" depart="36.43" type="ped_pedestrian">
        <walk from="-612003763#1" to="-688874074#0"/>
    </person>
    <person id="ped111" depart="36.77" type="ped_pedestrian">
        <walk from="220959991#0" to="-220959991#2"/>
    </person>
    <person id="ped112" depart="37.10" type="ped_pedestrian">
        <walk from="-191446780#0" to="191446776"/>
    </person>
    <person id="ped113" depart="37.43" type="ped_pedestrian">
        <walk from="-704515411#1" to="545736284"/>
    </person>
    <person id="ped114" depart="37.76" type="ped_pedestrian">
        <walk from="220959991#2" to="732985488"/>
    </person>
    <person id="ped115" depart="38.09" type="ped_pedestrian">
        <walk from="220285713#2" to="-220536404#3"/>
    </person>
    <person id="ped116" depart="38.42" type="ped_pedestrian">
        <walk from="-220401029#17" to="-778936907#13"/>
    </person>
    <person id="ped117" depart="38.75" type="ped_pedestrian">
        <walk from="755748203" to="gneE1"/>
    </person>
    <person id="ped118" depart="39.08" type="ped_pedestrian">
        <walk from="371878363#1" to="-732572866#0"/>
    </person>
    <person id="ped119" depart="39.42" type="ped_pedestrian">
        <walk from="220285681" to="220959970"/>
    </person>
    <person id="ped120" depart="39.75" type="ped_pedestrian">
        <walk from="220959819#2" to="220959939#2"/>
    </person>
    <person id="ped121" depart="40.08" type="ped_pedestrian">
        <walk from="-732598425#1" to="859307744#0"/>
    </person>
    <person id="ped122" depart="40.41" type="ped_pedestrian">
        <walk from="967234363#2" to="220959985#0"/>
    </person>
    <person id="ped123" depart="40.74" type="ped_pedestrian">
        <walk from="704521312#2" to="-610262460"/>
    </person>
    <person id="ped124" depart="41.07" type="ped_pedestrian">
        <walk from="-94800093#3" to="544779586#1"/>
    </person>
    <person id="ped125" depart="41.40" type="ped_pedestrian">
        <walk from="220959869" to="-707230233"/>
    </person>
    <person id="ped126" depart="41.73" type="ped_pedestrian">
        <walk from="972222507" to="732932550#2"/>
    </person>
    <person id="ped127" depart="42.06" type="ped_pedestrian">
        <walk from="-732574218#1" to="732572830#1"/>
    </person>
    <person id="ped128" depart="42.40" type="ped_pedestrian">
        <walk from="220959821#2" to="980722880#1"/>
    </person>
    <person id="ped129" depart="42.73" type="ped_pedestrian">
        <walk from="220536354#13" to="-732830926"/>
    </person>
    <person id="ped130" depart="43.06" type="ped_pedestrian">
        <walk from="220536388#1" to="220536357#0"/>
    </person>
    <person id="ped131" depart="43.39" type="ped_pedestrian">
        <walk from="-544621037" to="544779566"/>
    </person>
    <person id="ped132" depart="43.72" type="ped_pedestrian">
        <walk from="707247682#1" to="-220401029#3"/>
    </person>
    <person id="ped133" depart="44.05" type="ped_pedestrian">
        <walk from="953809141#0" to="220285715#1"/>
    </person>
    <person id="ped134" depart="44.38" type="ped_pedestrian">
        <walk from="-220285726" to="220285726"/>
    </person>
    <person id="ped135" depart="44.71" type="ped_pedestrian">
        <walk from="732830912#0" to="-953809141#0"/>
    </person>
    <person id="ped136" depart="45.05" type="ped_pedestrian">
        <walk from="-732830909#0" to="544620983"/>
    </person>
    <person id="ped137" depart="45.38" type="ped_pedestrian">
        <walk from="732598412" to="732598430#0"/>
    </person>
    <person id="ped138" depart="45.71" type="ped_pedestrian">
        <walk from="610262466#1" to="704515411#3"/>
    </person>
    <person id="ped139" depart="46.04" type="ped_pedestrian">
        <walk from="732830908#2" to="-220285724#2"/>
    </person>
    <person id="ped140" depart="46.37" type="ped_pedestrian">
        <walk from="-220536379#1" to="220959932#1"/>
    </person>
    <person id="ped141" depart="46.70" type="ped_pedestrian">
        <walk from="732958960#0" to="980722083"/>
    </person>
    <person id="ped142" depart="47.03" type="ped_pedestrian">
        <walk from="-220959811#7" to="220959938"/>
    </person>
    <person id="ped143" depart="47.36" type="ped_pedestrian">
        <walk from="732830909#0" to="-972222498#3"/>
    </person>
    <person id="ped144" depart="47.70" type="ped_pedestrian">
        <walk from="-220401029#9" to="732572848"/>
    </person>
    <person id="ped145" depart="48.03" type="ped_pedestrian">
        <walk from="220536410#1" to="732572837"/>
    </person>
    <person id="ped146" depart="48.36" type="ped_pedestrian">
        <walk from="-371878373" to="-220536399#6"/>
    </person>
    <person id="ped147" depart="48.69" type="ped_pedestrian">
        <walk from="-732572829#1" to="-732572833"/>
    </person>
    <person id="ped148" depart="49.02" type="ped_pedestrian">
        <walk from="220285701#2" to="-704524429#0"/>
    </person>
    <person id="ped149" depart="49.35" type="ped_pedestrian">
        <walk from="482092794#20" to="704147961#0"/>
    </person>
    <person id="ped150" depart="49.68" type="ped_pedestrian">
        <walk from="-220476151#4" to="220959861"/>
    </person>
    <person id="ped151" depart="50.01" type="ped_pedestrian">
        <walk from="-732595389" to="732572855#2"/>
    </person>
    <person id="ped152" depart="50.35" type="ped_pedestrian">
        <walk from="220959942#0" to="220959917#2"/>
    </person>
    <person id="ped153" depart="50.68" type="ped_pedestrian">
        <walk from="-953809141#1" to="220959813#1"/>
    </person>
    <person id="ped154" depart="51.01" type="ped_pedestrian">
        <walk from="635392915#1" to="-220695226#3"/>
    </person>
    <person id="ped155" depart="51.34" type="ped_pedestrian">
        <walk from="-482092794#12" to="-220959927#0"/>
    </person>
    <person id="ped156" depart="51.67" type="ped_pedestrian">
        <walk from="220536326#0" to="732932552"/>
    </person>
    <person id="ped157" depart="52.00" type="ped_pedestrian">
        <walk from="-732830909#1" to="-220959854#2"/>
    </person>
    <person id="ped158" depart="52.33" type="ped_pedestrian">
        <walk from="-220285690#15" to="220536351"/>
    </person>
    <person id="ped159" depart="52.66" type="ped_pedestrian">
        <walk from="-220959830#7" to="-704521313#2"/>
    </person>
    <person id="ped160" depart="53.00" type="ped_pedestrian">
        <walk from="220285712#1" to="-732987937"/>
    </person>
    <person id="ped161" depart="53.33" type="ped_pedestrian">
        <walk from="755748205" to="-220285719#1"/>
    </person>
    <person id="ped162" depart="53.66" type="ped_pedestrian">
        <walk from="-732932535" to="-972222498#2"/>
    </person>
    <person id="ped163" depart="53.99" type="ped_pedestrian">
        <walk from="-220959815#0" to="482092794#20"/>
    </person>
    <person id="ped164" depart="54.32" type="ped_pedestrian">
        <walk from="714783412#1" to="-707235527#3"/>
    </person>
    <person id="ped165" depart="54.65" type="ped_pedestrian">
        <walk from="-220959917#0" to="220536409#0"/>
    </person>
    <person id="ped166" depart="54.98" type="ped_pedestrian">
        <walk from="-220536381#0" to="704524428#3"/>
    </person>
    <person id="ped167" depart="55.31" type="ped_pedestrian">
        <walk from="-611415893#4" to="-704147950#8"/>
    </person>
    <person id="ped168" depart="55.64" type="ped_pedestrian">
        <walk from="-220285690#2" to="732572830#1"/>
    </person>
    <person id="ped169" depart="55.98" type="ped_pedestrian">
        <walk from="704147950#9" to="220476168#0"/>
    </person>
    <person id="ped170" depart="56.31" type="ped_pedestrian">
        <walk from="707247684#5" to="220401030#1"/>
    </person>
    <person id="ped171" depart="56.64" type="ped_pedestrian">
        <walk from="778936907#1" to="-220536326#1"/>
    </person>
    <person id="ped172" depart="56.97" type="ped_pedestrian">
        <walk from="-220536406#0" to="220959867"/>
    </person>
    <person id="ped173" depart="57.30" type="ped_pedestrian">
        <walk from="220959935#1" to="220536381#1"/>
    </person>
    <person id="ped174" depart="57.63" type="ped_pedestrian">
        <walk from="220959859#0" to="-220959815#0"/>
    </person>
    <person id="ped175" depart="57.96" type="ped_pedestrian">
        <walk from="220959969#1" to="707231897#1"/>
    </person>
    <person id="ped176" depart="58.29" type="ped_pedestrian">
        <walk from="611398276#5" to="-704147950#5"/>
    </person>
    <person id="ped177" depart="58.63" type="ped_pedestrian">
        <walk from="191446780#1" to="-704513870#5"/>
    </person>
    <person id="ped178" depart="58.96" type="ped_pedestrian">
        <walk from="-755748196#1" to="-220959809#0"/>
    </person>
    <person id="ped179" depart="59.29" type="ped_pedestrian">
        <walk from="-755752096#2" to="247789317#2"/>
    </person>
    <person id="ped180" depart="59.62" type="ped_pedestrian">
        <walk from="732958966" to="-220536374"/>
    </person>
    <person id="ped181" depart="59.95" type="ped_pedestrian">
        <walk from="-220959811#1" to="704147950#0"/>
    </person>
    <person id="ped182" depart="60.28" type="ped_pedestrian">
        <walk from="220959821#0" to="220536406#3"/>
    </person>
    <person id="ped183" depart="60.61" type="ped_pedestrian">
        <walk from="704511328#0" to="732624622"/>
    </person>
    <person id="ped184" depart="60.94" type="ped_pedestrian">
        <walk from="220959838#2" to="-732830938#3"/>
    </person>
    <person id="ped185" depart="61.28" type="ped_pedestrian">
        <walk from="220959811#5" to="-688874080"/>
    </person>
    <person id="ped186" depart="61.61" type="ped_pedestrian">
        <walk from="-732932525" to="704523448#3"/>
    </person>
    <person id="ped187" depart="61.94" type="ped_pedestrian">
        <walk from="220959935#1" to="-220285717#0"/>
    </person>
    <person id="ped188" depart="62.27" type="ped_pedestrian">
        <walk from="704147961#5" to="-704147950#6"/>
    </person>
    <person id="ped189" depart="62.60" type="ped_pedestrian">
        <walk from="-755749142#0" to="-732830913#1"/>
    </person>
    <person id="ped190" depart="62.93" type="ped_pedestrian">
        <walk from="707247684#0" to="220536411#0"/>
    </person>
    <person id="ped191" depart="63.26" type="ped_pedestrian">
        <walk from="-220536409#0" to="-220476155"/>
    </person>
    <person id="ped192" depart="63.59" type="ped_pedestrian">
        <walk from="371878363#6" to="-732574212#0"/>
    </person>
    <person id="ped193" depart="63.93" type="ped_pedestrian">
        <walk from="220959993#0" to="220285707#3"/>
    </person>
    <person id="ped194" depart="64.26" type="ped_pedestrian">
        <walk from="247789329" to="-220401029#7"/>
    </person>
    <person id="ped195" depart="64.59" type="ped_pedestrian">
        <walk from="545235942" to="220285724#0"/>
    </person>
    <person id="ped196" depart="64.92" type="ped_pedestrian">
        <walk from="-220401029#25" to="-220285701#0"/>
    </person>
    <person id="ped197" depart="65.25" type="ped_pedestrian">
        <walk from="546905269" to="-755748204"/>
    </person>
    <person id="ped198" depart="65.58" type="ped_pedestrian">
        <walk from="-220959854#2" to="-220285707#1"/>
    </person>
    <person id="ped199" depart="65.91" type="ped_pedestrian">
        <walk from="-371878363#7" to="220401029#3"/>
    </person>
    <person id="ped200" depart="66.24" type="ped_pedestrian">
        <walk from="-220959959#1" to="-545448780"/>
    </person>
    <person id="ped201" depart="66.58" type="ped_pedestrian">
        <walk from="220959847" to="704521313#0"/>
    </person>
    <person id="ped202" depart="66.91" type="ped_pedestrian">
        <walk from="220959978#1" to="-482092794#17"/>
    </person>
    <person id="ped203" depart="67.24" type="ped_pedestrian">
        <walk from="707235527#8" to="220285713#3"/>
    </person>
    <person id="ped204" depart="67.57" type="ped_pedestrian">
        <walk from="220536408#4" to="220959939#5"/>
    </person>
    <person id="ped205" depart="67.90" type="ped_pedestrian">
        <walk from="220959921#1" to="-220959969#1"/>
    </person>
    <person id="ped206" depart="68.23" type="ped_pedestrian">
        <walk from="-220476162" to="220401029#2"/>
    </person>
    <person id="ped207" depart="68.56" type="ped_pedestrian">
        <walk from="220536393#2" to="732572835"/>
    </person>
    <person id="ped208" depart="68.89" type="ped_pedestrian">
        <walk from="-220959969#1" to="-220536326#5"/>
    </person>
    <person id="ped209" depart="69.22" type="ped_pedestrian">
        <walk from="-732830921" to="59740755#3"/>
    </person>
    <person id="ped210" depart="69.56" type="ped_pedestrian">
        <walk from="-707247684#4" to="-94800093#2"/>
    </person>
    <person id="ped211" depart="69.89" type="ped_pedestrian">
        <walk from="-732830909#0" to="220959833#3"/>
    </person>
    <person id="ped212" depart="70.22" type="ped_pedestrian">
        <walk from="732572829#1" to="220959964#1"/>
    </person>
    <person id="ped213" depart="70.55" type="ped_pedestrian">
        <walk from="-220536367#1" to="-220959807#2"/>
    </person>
    <person id="ped214" depart="70.88" type="ped_pedestrian">
        <walk from="371878381#2" to="-732595385#1"/>
    </person>
    <person id="ped215" depart="71.21" type="ped_pedestrian">
        <walk from="611398284#1" to="220959981"/>
    </person>
    <person id="ped216" depart="71.54" type="ped_pedestrian">
        <walk from="-220959950#0" to="-732830936"/>
    </person>
    <person id="ped217" depart="71.87" type="ped_pedestrian">
        <walk from="220959959#1" to="-755750538#1"/>
    </person>
    <person id="ped218" depart="72.21" type="ped_pedestrian">
        <walk from="-482092794#7" to="-704147950#3"/>
    </person>
    <person id="ped219" depart="72.54" type="ped_pedestrian">
        <walk from="755418966" to="220285709#0"/>
    </person>
    <person id="ped220" depart="72.87" type="ped_pedestrian">
        <walk from="704524430#1" to="-220959923"/>
    </person>
    <person id="ped221" depart="73.20" type="ped_pedestrian">
        <walk from="751974272" to="967234360#2"/>
    </person>
    <person id="ped222" depart="73.53" type="ped_pedestrian">
        <walk from="-732932568" to="220476169#2"/>
    </person>
    <person id="ped223" depart="73.86" type="ped_pedestrian">
        <walk from="732932532" to="-220959964#1"/>
    </person>
    <person id="ped224" depart="74.19" type="ped_pedestrian">
        <walk from="-220476157" to="220285724#5"/>
    </person>
    <person id="ped225" depart="74.52" type="ped_pedestrian">
        <walk from="-220959941" to="545736276#0"/>
    </person>
    <person id="ped226" depart="74.86" type="ped_pedestrian">
        <walk from="-220536399#7" to="-732572835"/>
    </person>
    <person id="ped227" depart="75.19" type="ped_pedestrian">
        <walk from="611415893#3" to="220476169#3"/>
    </person>
    <person id="ped228" depart="75.52" type="ped_pedestrian">
        <walk from="-755749142#0" to="732572842#1"/>
    </person>
    <person id="ped229" depart="75.85" type="ped_pedestrian">
        <walk from="732932532" to="220959833#0"/>
    </person>
    <person id="ped230" depart="76.18" type="ped_pedestrian">
        <walk from="-707235527#1" to="-220959952"/>
    </person>