<?xml version="1.0" encoding="UTF-8"?>

<!-- generated on 2021-10-29 14:08:48 by Eclipse SUMO duarouter Version 1.10.0
<configuration xmlns:xsi="http://www.w3.org/2001/XMLSchema-instance" xsi:noNamespaceSchemaLocation="http://sumo.dlr.de/xsd/duarouterConfiguration.xsd">

    <input>
        <net-file value="C:\Users\ugur.coruh\Sumo\2021-10-29-14-07-48\osm.net.xml"/>
        <route-files value="C:\Users\ugur.coruh\Sumo\2021-10-29-14-07-48\osm.pedestrian.trips.xml"/>
    </input>

    <output>
        <output-file value="C:\Users\ugur.coruh\Sumo\2021-10-29-14-07-48\osm.pedestrian.rou.xml"/>
        <alternatives-output value="C:\Users\ugur.coruh\Sumo\2021-10-29-14-07-48\osm.pedestrian.rou.alt.xml"/>
    </output>

    <time>
        <begin value="0"/>
        <end value="3600"/>
    </time>

    <report>
        <no-warnings value="true"/>
        <ignore-errors value="true"/>
        <no-step-log value="true"/>
    </report>

</configuration>
-->

<routes xmlns:xsi="http://www.w3.org/2001/XMLSchema-instance" xsi:noNamespaceSchemaLocation="http://sumo.dlr.de/xsd/routes_file.xsd">
    <vType id="ped_pedestrian" vClass="pedestrian"/>
    <person id="ped0" type="ped_pedestrian" depart="0.00">
        <walk edges="-755749147#0 755749148 -755749145#0 -704521314 704521313#0 -707231896 -220536410#4 -220536410#3 -220536410#2 -220536410#1 -220536410#0 -220536357#2 -220536411#6 -220536411#5 -220536411#3 -220536411#2 220536411#0 220536323#0 -610262466#0 -610262466#1 611398276#3 -220285713#0 -220285713#1 -220285713#2 -220285713#3"/>
    </person>
    <person id="ped1" type="ped_pedestrian" depart="0.33">
        <walk edges="220959967#2 220959967#1 -220959921#1 220285671#2 220285671#1 220285671#0 -220959923 -220401029#3 -220401029#2 -220401029#1 -220401029#0 220536323#0 220536411#0 -220536411#2 -220536411#3 -220536411#5 -220536411#6 -220536357#2 220536357#4"/>
    </person>
    <person id="ped2" type="ped_pedestrian" depart="0.66">
        <walk edges="545235943 220959939#1 220959939#0 -220401029#8"/>
    </person>
    <person id="ped3" type="ped_pedestrian" depart="0.99">
        <walk edges="-220536404#1 -220536404#2 -220401029#24 -220401029#23 -220401029#21 -220401029#20 -220401029#18 -220401029#17 -220401029#15 -220401029#14 -220401029#12 -220401029#11 -220401029#9 -220401029#8 -220401029#7 -220401029#6 -220401029#4 -220401029#3 -220401029#2 -220401029#1 -220401029#0 220536323#0 -704521312#2"/>
    </person>
    <person id="ped4" type="ped_pedestrian" depart="1.32">
        <walk edges="220959964#1 611415894#1 611415894#0 220401030#3 220401030#2 220401030#1 220401030#0 611398277#1 611398277#0 220285699#0 967234362 778936907#13 778936907#11 710878606#0 710878606#1 710878606#2 482092794#17 482092794#18 -688874082 220959867"/>
    </person>
    <person id="ped5" type="ped_pedestrian" depart="1.66">
        <walk edges="220536397#3 -220536397#2 -220536411#2 220536411#0 220536323#0 59740755#7 59740755#6 59740755#5 546905311 220285689 -220285690#13 220285690#14 220285690#15 220285690#16 220285690#17 612003762#2 612003762#1 612003762#0 482092794#7 482092794#8 482092794#9 482092794#12 482092794#13 482092794#14 482092794#15"/>
    </person>
    <person id="ped6" type="ped_pedestrian" depart="1.99">
        <walk edges="-688874072#4 220285711#4 -220285726 -220285712#2 -220285712#1 -732932554 -732932564#3 -732932564#2 732987937"/>
    </person>
    <person id="ped7" type="ped_pedestrian" depart="2.32">
        <walk edges="220536406#1 220536406#0 220401029#18 -220401029#17 -220401029#15 -220401029#14 -220401029#12 -220401029#11 -220401029#9 -220401029#8 -220401029#7 -220401029#6 220401029#4 -220536324#0 -220536324#1 -220536324#2 -220536324#3 -220959976#1 -220959926#0 -220959936 732572831 -732572832#0 732830927 -732830930#1 -732830930#2 732830937 -371878363#4 -371878363#5 -732572852"/>
    </person>
    <person id="ped8" type="ped_pedestrian" depart="2.65">
        <walk edges="732572833 -732572833 704515411#3 704515411#2 704515411#1 -220536411#0 -220536411#2 -220536411#3 -220536411#5 -220536411#6 -220536357#2 -220536410#0 -220536410#1 -220536410#2 -220536410#3 -220536410#4 -707231896 704521313#0 -704521314 -755749142#2 -755749142#1 -751974270#1 -755749149"/>
    </person>
    <person id="ped9" type="ped_pedestrian" depart="2.98">
        <walk edges="859307744#0 859307743#5 859307743#1 191453151 191453167#1 -732598390#0 732598394 732598396#1 -732598399 732598402#2 732598402#1 -732598415#0 732598416 -732598417 -732598420#0 -732598420#1 732598427#2 732598427#1 -732598430#0 -732598430#1 732598430#2"/>
    </person>
    <person id="ped10" type="ped_pedestrian" depart="3.31">
        <walk edges="-220285690#0 220959869 220959922 -220285671#5 220285671#4 220285671#3 220285671#2 220285671#1 220285671#0 611398276#0 611398276#1"/>
    </person>
    <person id="ped11" type="ped_pedestrian" depart="3.64">
        <walk edges="-220959834 -220959833#5 -972222498#3 972222498#4 610262462 610262463 220476159#2 220476159#3 -220476159#4 -220476159#5 707247682#2 707247682#1 610262465#1 707247680 220476169#3 -220476164 -778936907#9"/>
    </person>
    <person id="ped12" type="ped_pedestrian" depart="3.97">
        <walk edges="220285723#4 220285723#3 -307329896 778936907#5 778936907#6 -688874080 220959857 220959852 220959867 -688874082 482092794#19 482092794#20 -482092794#20"/>
    </person>
    <person id="ped13" type="ped_pedestrian" depart="4.31">
        <walk edges="220959867 -688874082 482092794#18 482092794#17 482092794#16 482092794#15 482092794#14 482092794#13 482092794#12 482092794#9 482092794#8 482092794#7 612003762#0 612003762#1 612003762#2 220285690#17 220285690#16 220285690#15 220285690#14 -220285690#13 220285689 546905311 59740755#5 59740755#6 59740755#7 220536323#0 704515411#1 -704515411#2 220959926#1 220959976#2 -220959976#1"/>
    </person>
    <person id="ped14" type="ped_pedestrian" depart="4.64">
        <walk edges="704521313#4 611415895 59740755#3 59740755#4 59740755#5 59740755#6 59740755#7 -220401029#0 -220401029#1 -220401029#2 -220401029#3 -220401029#4 -220401029#6 -220401029#7 -220401029#8 220401029#9 220959985#0 220959985#1 220959985#2 545448779#1 545448779#2 220536354#17 220536354#16 220536354#15 220536354#14"/>
    </person>
    <person id="ped15" type="ped_pedestrian" depart="4.97">
        <walk edges="707247684#4 -707247685 707245213#0 707245213#1 220285678#1 220285678#2 220285678#3 59740755#0 59740755#1 59740755#2 59740755#3 59740755#4 59740755#5 59740755#6 59740755#7 -220401029#0 -220401029#1 -220401029#2 -220401029#3 220536324#0"/>
    </person>
    <person id="ped16" type="ped_pedestrian" depart="5.30">
        <walk edges="-127482092#2 -127482092#3 -191453140#0 -704511335 859594426#1 859594425#3 859594425#4 -191453167#4 -191453167#3 -732598410 -732598396#0 732598397 -732598399 732598402#2 732598402#1 -732598415#0 732598416 -732598417 -732598420#0 -732598420#1 -732598427#2 -732598427#1 -732598427#0"/>
    </person>
    <person id="ped17" type="ped_pedestrian" depart="5.63">
        <walk edges="-220536409#2 -220536381#1 -220536381#0 -220536397#3 -220536397#2 -220536411#2 220536411#0 220536323#0 -220401029#0 -546905391 611398276#1 611398276#0 -220285707#0 -220285707#1 220285707#2"/>
    </person>
    <person id="ped18" type="ped_pedestrian" depart="5.96">
        <walk edges="-220536382#0 -220401029#27 -220401029#26 -220401029#25 -220401029#24 -220401029#23 -220401029#21 -220401029#20 -220401029#18 -220401029#17 -220401029#15 -220401029#14 -220401029#12 -220401029#11 -220401029#9 -220401029#8 -220401029#7 -220401029#6 -220401029#4 -220401029#3 -220401029#2 -220401029#1 220959948#1 220959948#0 704521312#2"/>
    </person>
    <person id="ped19" type="ped_pedestrian" depart="6.29">
        <walk edges="220285690#12 220285690#11 220285690#10 220285690#9 220285690#8 220285690#7 220285690#6 220285690#5 220285690#4 220285690#3 220285690#2 220285690#1 220285690#0 -544621050 -220401029#14 -220401029#15 -220401029#17 -220401029#18 -220401029#20 -220401029#21 -220401029#23 -220401029#24 -220401029#25 220401029#26 220401029#27 220536382#1"/>
    </person>
    <person id="ped20" type="ped_pedestrian" depart="6.62">
        <walk edges="220536354#13 220536354#14 220536354#15 220536354#16 220536354#17 545448779#2 545448779#1 220959985#2 220959985#1 220959985#0 220401029#9 -220401029#8 -220401029#7 -220401029#6 -220401029#4 -220401029#3 -220401029#2 -220401029#1 -220401029#0 59740755#7 59740755#6 59740755#5 59740755#4 59740755#3 611415895 704521313#4 -220476152#0 611415890#3 611415890#2 611415890#1 611415894#3"/>
    </person>
    <person id="ped21" type="ped_pedestrian" depart="6.96">
        <walk edges="-220536383#2 -220536404#0 -220536404#1 -220536404#2 -220401029#25 -220401029#26 -220401029#27 -220401029#28 -220401029#29 -220401029#30 -220401029#31 -220959979 94800093#9 94800093#10 94800093#11 220959929"/>
    </person>
    <person id="ped22" type="ped_pedestrian" depart="7.29">
        <walk edges="-704147950#3 -704147950#1 -704147950#0 -704147949 371878364 -707235527#11 707235527#10 707235527#9 707235527#8 707235527#6 707235527#5 -707235527#4 -707235527#3 -707235527#2 -707235527#1 -707235527#0 611415890#0 611415890#1 611415890#2 611415890#3 -220476152#0 704521313#4 611415895 59740755#3 59740755#4 59740755#5 59740755#6 59740755#7 -220401029#0 -220401029#1 220959815#5 220959928#1 220959815#1 220959927#1 -220959927#1"/>
    </person>
    <person id="ped23" type="ped_pedestrian" depart="7.62">
        <walk edges="732574212#0 371878363#4 -732830937 -732830930#2 -732830930#1 732830927 -732572832#0 732572831 -220959936 -220959926#0 -220959976#1 704147944#0 544634590 220536354#19 -545448785 -220959985#3 -544779590 -544779586#0"/>
    </person>
    <person id="ped24" type="ped_pedestrian" depart="7.95">
        <walk edges="-220959811#2 -220959811#1 220959811#0 -220959830#0 482092794#8 482092794#9 482092794#12 482092794#13 482092794#14 482092794#15 482092794#16 482092794#17 482092794#18 -688874082 220959867 220959852 220959857 -688874080 778936907#6 778936907#5 -307329896 220285723#3 -220285723#4 220285728#5 220285715#0 778936906 -778936906"/>
    </person>
    <person id="ped25" type="ped_pedestrian" depart="8.28">
        <walk edges="-755750538#0 -755750538#1 704147950#4 704147950#3 -704147950#1 -704147950#0 -704147949 371878364 -707235527#11 707235527#10 707235527#9 707235527#8 707235527#6 707235527#5 -707235527#4 -707235527#3 -707235527#2 -707235527#1 -707235527#0 611415890#0 611415890#1 611415890#2 611415890#3 -220476152#0 704521313#4 611415895 59740755#3 59740755#4 59740755#5 59740755#6 59740755#7 -220401029#0 -220401029#1 -220401029#2 -220401029#3 -220959923 220285671#0 220285671#1"/>
    </person>
    <person id="ped26" type="ped_pedestrian" depart="8.61">
        <walk edges="953809144#2 953809144#1 980722880#1 953809143#2 707313624#1 704515411#1 220536323#0 59740755#7 59740755#6 220959820 220959944 220959962#1 482092794#4 220959946 220959821#1 -220959811#7 -220959811#6"/>
    </person>
    <person id="ped27" type="ped_pedestrian" depart="8.94">
        <walk edges="-755749147#0 -732830938#3 -732830938#2 -732830938#1 -732830938#0 -371878363#0 -371878363#1 732574232 -732574222#3"/>
    </person>
    <person id="ped28" type="ped_pedestrian" depart="9.27">
        <walk edges="220285707#1 220285707#0 611398276#0 611398276#1 -546905391 -220401029#0 59740755#7 59740755#6 59740755#5 59740755#4 59740755#3 611415895 704521313#4 -220476152#0 611415890#3 611415890#2 611415890#1 611415890#0 -707235527#0 -707235527#1 -707235527#2 -707235527#3 -707235527#4 707235527#5 707235527#6 707235527#8 707235527#9 707235527#10 -707235527#11 371878364 -704147949 -704147950#0"/>
    </person>
    <person id="ped29" type="ped_pedestrian" depart="9.61">
        <walk edges="220536396 220401029#4 220959923 611398276#0 611398276#1 611398276#3 611398276#4 611398276#5 611398276#6 611398276#8 967234360#1 967234360#2 967234360#3 967234360#4 967234360#5 967234360#6 967234360#7 611398285 220476169#0 220476169#1 220476169#2 220476169#3 220476169#4 610262465#0"/>
    </person>
    <person id="ped30" type="ped_pedestrian" depart="9.94">
        <walk edges="-220536404#2 220401029#24 220401029#23 -220536351 220536408#2 220536408#3 220536408#4 220536354#11 220536354#12 220536354#13 220536354#14 -544620981"/>
    </person>
    <person id="ped31" type="ped_pedestrian" depart="10.27">
        <walk edges="220959830#5 220959830#6 220959830#7 220959830#8 482092794#6 612003762#0 612003762#1 612003762#2 -612003763#1 220285699#2 611398280#1 611398277#1 220401030#0 220401030#1 220401030#2 -220959824#3 -220959953 220959969#1 220959969#3 220959915#1"/>
    </person>
    <person id="ped32" type="ped_pedestrian" depart="10.60">
        <walk edges="-610262462 610262463 220476159#2 220476159#3 -220476159#4 -220476159#5 707247682#2 707247682#1 610262465#1 707247680 220476169#3 220476169#2 220476169#1 220476169#0 611398280#0 59740755#1 59740755#2 59740755#3 59740755#4 59740755#5 59740755#6"/>
    </person>
    <person id="ped33" type="ped_pedestrian" depart="10.93">
        <walk edges="-704525160 704147961#2 -732832470 -704147954#0 307329900#0 704147958#3 704147958#2 704147958#1 704526125 -704147957 220959991#3 220959991#2 220959991#1 -732958984"/>
    </person>
    <person id="ped34" type="ped_pedestrian" depart="11.26">
        <walk edges="980722084 980720225 980720230#1 980720223#1 980720223#5 980720223#4 980720228"/>
    </person>
    <person id="ped35" type="ped_pedestrian" depart="11.59">
        <walk edges="-220536391#0 546367936 546367935#0 -220536357#0 59740755#3 59740755#2 59740755#1 611398280#0 611398277#0 220285699#0 967234362 778936907#13 778936907#11 710878606#0 710878606#1 710878606#2 482092794#17 482092794#18 -688874082"/>
    </person>
    <person id="ped36" type="ped_pedestrian" depart="11.92">
        <walk edges="732830925#1 732830925#0 732830920"/>
    </person>
    <person id="ped37" type="ped_pedestrian" depart="12.26">
        <walk edges="-732932531 972222498#0 972222505#1 972222504#1 220476154#6 220476154#5 220476154#4 220476154#3 220476154#2 -220959916#0 -220959916#1 -704147964#0 704147964#1 704147964#2 704147956 -220959991#3"/>
    </person>
    <person id="ped38" type="ped_pedestrian" depart="12.59">
        <walk edges="220959875#1 220959875#0 220959942#0 -220476159#4 -220476159#5 707247682#2 707247682#1 610262465#1 707247680 220476169#3 220476169#2 220476169#1 220476169#0 611398285 967234360#7"/>
    </person>
    <person id="ped39" type="ped_pedestrian" depart="12.92">
        <walk edges="732591759#0 732591759#1 371878381#2 371878381#3 371878381#4 191453140#1 191453140#2 -732597244#5 732597264#0 732597264#1 732597264#2 -732597269#3 -732597269#2 -732597269#1 -732597269#0"/>
    </person>
    <person id="ped40" type="ped_pedestrian" depart="13.25">
        <walk edges="-220959933 220959933 220401029#0 59740755#7 59740755#6 220959820 220959944 220959962#1 482092794#4 482092794#5 220959830#8 220959830#7 220959830#6 -220959830#5 -220959830#4 -220959830#3 -220959856"/>
    </person>
    <person id="ped41" type="ped_pedestrian" depart="13.58">
        <walk edges="-220959830#2 -220959830#1 -220959830#0 482092794#8 710878608 967234363#0 157111328#2 157111328#1 59740754 611398280#1 611398280#0 59740755#1 59740755#2 59740755#3 -220536357#0 546367935#0 546367936 220536391#0"/>
    </person>
    <person id="ped42" type="ped_pedestrian" depart="13.91">
        <walk edges="610262463 -610262460"/>
    </person>
    <person id="ped43" type="ped_pedestrian" depart="14.24">
        <walk edges="220959941 220401029#25 -220401029#24 -220401029#23 -220401029#21 -220401029#20 -220401029#18 -220401029#17 -220401029#15 -220401029#14 -220401029#12 -220401029#11 -220401029#9 -220401029#8 -220401029#7 -220401029#6 220401029#4 -220536324#0 -220536324#1 -220536324#2 -220536324#3 -220959976#1 -220959926#0 -220959936 732572831 -732572832#0 732830927 -732830930#1 -732830930#2 732830937 -371878363#4 -371878363#5 -371878363#6 371878363#7 -732572847#1 -732572848 -732572849"/>
    </person>
    <person id="ped44" type="ped_pedestrian" depart="14.57">
        <walk edges="-755752100 707247684#4 -707247685 707247682#2 707247682#1 610262465#1 707247680 220476169#3 220476169#2 220476169#1 220476169#0 611398285 967234360#7 967234360#6 967234360#5 967234360#4 967234360#3 967234360#2 967234360#1 611398276#8 611398276#6 611398276#5 611398276#4 611398276#3 611398276#1 611398276#0 -220285671#0 -220285671#1 -220285671#2 -220285671#3 -220285671#4"/>
    </person>
    <person id="ped45" type="ped_pedestrian" depart="14.90">
        <walk edges="-220536394#1 220536404#0 220536383#2 220536408#3 220536408#4 220536354#11 220536354#12 220536354#13 220536354#14 220536354#15 220536354#16 220536354#17 220536354#18 220536354#19 544634590 704147944#0 -220959976#1 -220959926#0 -220959936 732572831 -732572832#0 732572832#1 732830930#1"/>
    </person>
    <person id="ped46" type="ped_pedestrian" depart="15.24">
        <walk edges="-732987813 732985486#0 732985487#2 732985487#1 -732985491#0 -732932537#0 732932537#1 732932537#3 -732932517#0 220959888#4 220959888#5 -239342265#1 -220476154#1 220959916#0 220959916#1 220959916#2"/>
    </person>
    <person id="ped47" type="ped_pedestrian" depart="15.57">
        <walk edges="732574216 -732574214#2 -732574214#3 732572868#0 -732572870 732574212#1 732574212#0 371878363#4 -732830937 -732830930#2 -732830930#1 732830927"/>
    </person>
    <person id="ped48" type="ped_pedestrian" depart="15.90">
        <walk edges="-220285712#0 -220285712#1 -220285712#2 -220285726 220285711#4 -688874072#4 688874077"/>
    </person>
    <person id="ped49" type="ped_pedestrian" depart="16.23">
        <walk edges="732574216 -732574214#2 -732574214#3 732572868#0 -732572870 -732574212#1 -732574212#0 371878363#5 371878363#6 -732572851 732572858#3 -732572859#0"/>
    </person>
    <person id="ped50" type="ped_pedestrian" depart="16.56">
        <walk edges="714783412#0 714783412#1 707248981 220959955#0 -220959875#0 220959942#0 -220476159#4 -220476159#5 707247682#2 707247682#1 610262465#1 707247680 220476169#3 -220476164 -778936907#9 710878606#0 710878606#1 710878606#2 482092794#16 482092794#15 482092794#14 482092794#13 482092794#12 482092794#9 482092794#8 -220959830#0 -220959830#1 -220959830#2 -220959830#3 -220959830#4 -220959830#5 -220959830#6"/>
    </person>
    <person id="ped51" type="ped_pedestrian" depart="16.89">
        <walk edges="732624628 732624627#2 -732624625#2 -635392915#0 220695226#1 220695226#0 191446766#4 191453178#0 704511329#1 704511329#0 859594424#1 859594424#0 859594425#0 -191453167#4 -191453167#3 -732598410 -732598396#0 732598397 -732598399 732598402#2 732598402#1 -732598415#0 732598416 -732598417 -732598420#0 -732598420#1 732598427#2 732598427#1 732598427#0"/>
    </person>
    <person id="ped52" type="ped_pedestrian" depart="17.22">
        <walk edges="-732598436 732598437 732598438#1 732598439#1"/>
    </person>
    <person id="ped53" type="ped_pedestrian" depart="17.55">
        <walk edges="-220959830#7 220959830#6 -220959830#5 -220959830#4 -220959830#3 -220959830#2 -220959830#1 -220959830#0 482092794#8 482092794#9 482092794#12 482092794#13 482092794#14 482092794#15 482092794#16 710878606#2 710878606#1 710878606#0 -778936907#9"/>
    </person>
    <person id="ped54" type="ped_pedestrian" depart="17.89">
        <walk edges="220959859#0 220285671#4 220285671#5 544860357 -220401029#9 -220401029#11 -220401029#12 -220401029#14 -220401029#15 -220401029#17 -220401029#18 -220401029#20 -220401029#21 -220401029#23 -220401029#24 -220401029#25 -220401029#26 -220401029#27 -220401029#28 -220401029#29 220401029#30"/>
    </person>
    <person id="ped55" type="ped_pedestrian" depart="18.22">
        <walk edges="-732572830#1 -732572830#0 732572828 -220959976#1 -220536324#3 -220536324#2 -220536324#1 220536324#0 220959923 -220285707#0 -220285707#1 -220285707#2 -220285707#3 546367869"/>
    </person>
    <person id="ped56" type="ped_pedestrian" depart="18.55">
        <walk edges="220536354#11 220536354#12 220536354#13 220536354#14 220536354#15 220536354#16 220536354#17 545448779#2 545448779#1 220959985#2 220959985#1 220959985#0 220401029#9 -220401029#8 -220401029#7 -220401029#6 -220401029#4 -220401029#3 -220401029#2 -220401029#1 -220401029#0 610262466#0"/>
    </person>
    <person id="ped57" type="ped_pedestrian" depart="18.88">
        <walk edges="704147950#7 704147950#6 704147950#5 704147950#4 704147950#3 704147950#1 704147950#0 247789321 -371878364 707235527#11 -220476162 -220401035#1 -704525160 704147961#2 -732832470 -704147954#0 307329900#0"/>
    </person>
    <person id="ped58" type="ped_pedestrian" depart="19.21">
        <walk edges="-732598394 732598393#0"/>
    </person>
    <person id="ped59" type="ped_pedestrian" depart="19.54">
        <walk edges="-220959917#5 -220959917#6 -220959917#7 -611415893#5 220476168#0 220476161 220476165 707235527#6 707235527#5 -707235527#4 -707235527#3 -707235527#2 -707235527#1 -707231895#1 -707231895#0 -704521314 -755749142#2 -755749142#1"/>
    </person>
    <person id="ped60" type="ped_pedestrian" depart="19.87">
        <walk edges="-127482092#2 -127482092#3 191453143 191453140#1 -732595391"/>
    </person>
    <person id="ped61" type="ped_pedestrian" depart="20.20">
        <walk edges="-755752106 755752106 -220476151#4 -220476151#5 -220959917#6 -220959917#5 -220959917#4 -220959917#3 -220959917#2 -220959917#0 220285678#2 307329904#0 307329904#1 778936907#11 710878606#0 710878606#1 710878606#2 482092794#17 -220959807#0 220959807#1 220959813#0"/>
    </person>
    <person id="ped62" type="ped_pedestrian" depart="20.54">
        <walk edges="732572845 -732572842#0 -732572842#1 -732572841 545736283#0 -545736276#0 220536327#0 544634586 707313625#2 -220959976#1 -220959926#0 -220959936 732572831 -732572832#0 732830927 -732830930#1 -732830930#2 732830937 -371878363#4 -371878363#5 -371878363#6 371878363#7 371878363#9 371878374#0 -371878372"/>
    </person>
    <person id="ped63" type="ped_pedestrian" depart="20.87">
        <walk edges="-220536409#0 220536357#4 -704521313#3 -220476152#0 611415890#3 611415890#2 611415890#1 611415890#0 -707235527#0 -707235527#1 -707235527#2 -707235527#3 -707235527#4 707235527#5 707235527#6 707235527#8 707235527#9 707235527#10 -220476162 220401035#0"/>
    </person>
    <person id="ped64" type="ped_pedestrian" depart="21.20">
        <walk edges="-707235527#8 -707235527#6 -707235527#5 -707235527#4 -707235527#3 -707235527#2 -707235527#1 -707235527#0 611415890#0 611415890#1 611415890#2 611415890#3 -220476152#0 704521313#4 611415895 59740755#3 59740755#4 546905311 611398276#8 -220285724#0 220959861 220285690#12"/>
    </person>
    <person id="ped65" type="ped_pedestrian" depart="21.53">
        <walk edges="-545235922#1 -545235922#2 220959934#1 220959934#0 220536393#0 220536354#19 220536354#18 220536354#17 220536354#16 220536354#15 220536354#14 220536354#13 544621037"/>
    </person>
    <person id="ped66" type="ped_pedestrian" depart="21.86">
        <walk edges="220285713#1 -220285701#2 -220959990#2 -220959990#1 -220959990#0 611398276#8 546905311 59740755#4 59740755#3 611415895 704521313#4 -220476152#0 611415890#3 611415890#2 611415890#1 611415890#0 -707235527#0 -707235527#1 -707235527#2 -707235527#3 -707235527#4"/>
    </person>
    <person id="ped67" type="ped_pedestrian" depart="22.19">
        <walk edges="220476151#4 220476151#3 220476151#2 220476151#1 220476151#0 -220476153#1"/>
    </person>
    <person id="ped68" type="ped_pedestrian" depart="22.52">
        <walk edges="247789326 -247789317#2 220476170#2 220476170#1 220476170#0 -220476151#5 -220959917#6 -220959917#5 -220959917#4 -220959917#3 -220959917#2 -220959917#0 220285678#2 307329904#0 307329904#1 778936907#13 967234362"/>
    </person>
    <person id="ped69" type="ped_pedestrian" depart="22.85">
        <walk edges="220959830#7 220959830#8 482092794#6 612003762#0 612003762#1 612003762#2 -612003763#1 220285699#2 611398280#1 611398280#0 611415890#5 611415890#4 611415890#3 611415890#2 611415890#1 611415894#3 611415894#4 732830916#0 755748198"/>
    </person>
    <person id="ped70" type="ped_pedestrian" depart="23.19">
        <walk edges="610262466#0 59740755#7 59740755#6 59740755#5 546905311 220285689 -220285690#13 220285690#14 220285690#15 220285690#16 220285690#17 -612003763#1 220285699#2 220285699#0 967234362 778936907#13 778936907#11 -778936907#9 -778936907#8 -778936907#7 -778936907#6 220285731#0"/>
    </person>
    <person id="ped71" type="ped_pedestrian" depart="23.52">
        <walk edges="732832466 -732832467 704147961#3 732832470 704147954#1"/>
    </person>
    <person id="ped72" type="ped_pedestrian" depart="23.85">
        <walk edges="220285690#11 220285690#10 220285690#9 220285690#8 220285690#7 220285690#6 220285690#5 220285690#4 220285690#3 220285690#2 220285690#1 220959869 220959844 544860357 220401029#9 220959985#0 220959985#1 220959985#2 545448779#1 545448779#2 -545736276#0 545736283#0 -732572841 -732572842#2"/>
    </person>
    <person id="ped73" type="ped_pedestrian" depart="24.18">
        <walk edges="-707247684#1 -707247684#2 -707247684#4 -707247684#5 220476159#4 -220959942#0 220959942#1"/>
    </person>
    <person id="ped74" type="ped_pedestrian" depart="24.51">
        <walk edges="704524428#3 704524428#2 704524428#1 704524429#1 -704524430#0 -704524430#1 707235527#8 -220476165 -220476161 220476168#0 611415893#4 -732830912#1 -220959969#3 -220959915#2 220959824#0 220959917#0 220285678#1 707245213#1 707245213#0 220476159#5 220476159#4 220476159#3 220476159#2 610262463 610262462 972222498#4 972222498#3 972222498#2 972222498#1 972222498#0 972222505#1 972222504#1 220476154#6"/>
    </person>
    <person id="ped75" type="ped_pedestrian" depart="24.84">
        <walk edges="220536354#16 220536354#17 545448779#2 545448779#1 220959985#2 220959985#1 220959985#0 220401029#9 -220401029#8 -220401029#7 -220401029#6 -220401029#4 -220401029#3 -220401029#2 -220401029#1 220959948#1 -220959940"/>
    </person>
    <person id="ped76" type="ped_pedestrian" depart="25.17">
        <walk edges="545736276#2 -545736276#0 545448779#2 545448779#1 220959985#2 220959985#1 220959985#0 220401029#9 -220401029#8 -220401029#7 -220401029#6 -220401029#4 -220401029#3 -220401029#2 -220401029#1 -220401029#0 220536323#0 220536411#0 220536411#2 220536411#3 220536411#5 220536411#6 -220536357#1"/>
    </person>
    <person id="ped77" type="ped_pedestrian" depart="25.50">
        <walk edges="-755748196#0 -755748196#1 707235527#4 -707235527#3 -707235527#2 -707235527#1 -707235527#0 611415890#0 611415890#1 611415890#2 220536377#1 -732572820 -611415893#2"/>
    </person>
    <person id="ped78" type="ped_pedestrian" depart="25.84">
        <walk edges="220959816#4 -220401029#29 -220401029#28 -220401029#27 -220401029#26 -220401029#25 -220401029#24 -220401029#23 -220401029#21 -220401029#20 -220401029#18 -220401029#17 544621007"/>
    </person>
    <person id="ped79" type="ped_pedestrian" depart="26.17">
        <walk edges="-755748622 755748618 -704147950#1 -704147950#0 -704147949 371878364 707235527#11 -220476162 -220401035#1 -704525160 -704147961#2 -704147961#3 -704147961#4 704147961#5 704147961#6"/>
    </person>
    <person id="ped80" type="ped_pedestrian" depart="26.50">
        <walk edges="220536369#0 220536410#4 220536410#3 220536410#2 220536410#1 220536410#0 -220536357#4 704521313#3 704521313#4 611398284#0 611415890#5 611398280#0 611398280#1 59740754 157111328#1 157111328#2 967234363#0 710878608 482092794#9 482092794#12 482092794#13 482092794#14 482092794#15 -220959819#0 -220959819#1 220959848"/>
    </person>
    <person id="ped81" type="ped_pedestrian" depart="26.83">
        <walk edges="-704147961#5 -704147961#4 -704147961#3 -704147961#2"/>
    </person>
    <person id="ped82" type="ped_pedestrian" depart="27.16">
        <walk edges="220285671#2 220285671#1 220285671#0 -220959923 -220401029#3 -220401029#2 -220401029#1 -220401029#0 59740755#7 59740755#6 59740755#5 59740755#4 59740755#3 611415895 -704521313#4 220476152#0 611415893#0 611415893#1 611415893#2 611415893#3 -732830912#0 732830909#0 732830909#1 -732830909#2 -220959917#4 -220959917#5 -220959917#6"/>
    </person>
    <person id="ped83" type="ped_pedestrian" depart="27.49">
        <walk edges="-220285712#5 -220959951#4 220959951#3"/>
    </person>
    <person id="ped84" type="ped_pedestrian" depart="27.82">
        <walk edges="-732572823#1 704147946#1 953809144#2 953809144#1 953809144#0 704147944#1 704147944#0 544634590 220536354#19 220536354#18 220536354#17 220536354#16 220536354#15 220536354#14 220536354#13 220536354#12 -220536406#3"/>
    </person>
    <person id="ped85" type="ped_pedestrian" depart="28.15">
        <walk edges="-220285701#2 220285713#0 611398276#1 611398276#0 220285671#0 220285671#1 220285671#2 220285671#3 220285671#4 220285671#5 -544860357 220401029#9 220959985#0 220959985#1 220959985#2 545448779#1 545448779#2 220536354#17 220536354#16 220536354#15 220536354#14"/>
    </person>
    <person id="ped86" type="ped_pedestrian" depart="28.48">
        <walk edges="980722880#1 953809143#2 707313624#1 -704515411#2 732572831 -732572832#0 732572832#1 732830930#1 -732830934#2 732830935 -732830935"/>
    </person>
    <person id="ped87" type="ped_pedestrian" depart="28.82">
        <walk edges="220959967#3 -220959836 220285671#4 220285671#3 220285671#2 220285671#1 220285671#0 -220959923 -220401029#3 -220401029#2 -220401029#1 220959948#1 220959948#0 -704515411#1 707313622#2"/>
    </person>
    <person id="ped88" type="ped_pedestrian" depart="29.15">
        <walk edges="755748196#1 -707235527#4 -707235527#3 -707235527#2 -707235527#1 -707235527#0 611415890#0 611415890#1 611415890#2 611415890#3 -220476152#0 704521313#4 611415895 59740755#3 59740755#4 59740755#5 59740755#6 59740755#7 -220401029#0 -220401029#1 -220401029#2 -220401029#3 -220401029#4 220959859#1 -546365125"/>
    </person>
    <person id="ped89" type="ped_pedestrian" depart="29.48">