<?xml version="1.0" encoding="UTF-8"?>

<!-- generated on 2021-10-29 14:07:59 by Eclipse SUMO polyconvert Version 1.10.0
<configuration xmlns:xsi="http://www.w3.org/2001/XMLSchema-instance" xsi:noNamespaceSchemaLocation="http://sumo.dlr.de/xsd/polyconvertConfiguration.xsd">

    <input>
        <net-file value="osm.net.xml"/>
        <osm-files value="osm_bbox.osm.xml"/>
        <osm.keep-full-type value="true"/>
        <type-file value="C:\Program%20Files%20(x86)\Eclipse\Sumo\data\typemap\osmPolyconvert.typ.xml"/>
    </input>

    <output>
        <output-file value="osm.poly.xml"/>
    </output>

    <processing>
        <poi-layer-offset value="5"/>
    </processing>

    <report>
        <verbose value="true"/>
    </report>

</configuration>
-->

<additional xmlns:xsi="http://www.w3.org/2001/XMLSchema-instance" xsi:noNamespaceSchemaLocation="http://sumo.dlr.de/xsd/additional_file.xsd">
    <location netOffset="-619946.84,-4538584.41" convBoundary="-10639.84,-10847.40,29638.11,9261.29" origBoundary="40.297599,40.893428,40.780418,41.068116" projParameter="+proj=utm +zone=37 +ellps=WGS84 +datum=WGS84 +units=m +no_defs"/>

    <poly id="127482089" type="waterway.river" color="181,209,209" fill="0" layer="-4.00" shape="11179.156615,-9507.808388 11132.162944,-9384.458798 11076.189964,-9327.953349 11037.996651,-9312.274963 10970.202719,-9290.304017 10887.069457,-9161.265334 10900.933710,-8962.764076 10713.021128,-8696.717682 10584.349132,-8541.176704 10439.790519,-8323.561204 10382.170704,-8069.935810 10359.483644,-8017.489281 10288.408995,-7934.960415 10291.754321,-7852.136865 10327.396144,-7656.483142 10410.410035,-7514.693171 10396.165123,-7350.937684 10359.726730,-7217.202716 10126.071432,-7028.798225 10041.711113,-6909.656174 9974.752423,-6789.928553 9933.198445,-6647.809062 10110.296993,-6503.006720 10162.206126,-6404.077935 10152.943798,-6271.716207 10092.987649,-6118.184873 10105.446190,-5962.963044 10133.190409,-5887.403843 10096.606093,-5765.785734 10242.566477,-5637.353614 10240.016559,-5556.999377 10061.372671,-5442.667915 10009.940427,-5327.441623 10133.768125,-5092.095631 10111.557410,-5005.070601 10000.631604,-4908.585728 9947.267896,-4848.739914 9898.773153,-4776.081629 9900.161001,-4644.797486 9855.214604,-4518.317623 9768.551221,-4327.454234 9722.332243,-4253.699844 9685.019528,-4124.863537 9545.126980,-4043.818917 9469.727705,-3992.375572 9363.893920,-3852.805407 9281.872069,-3687.318752 9228.635008,-3589.764997 9168.788976,-3518.489968 9149.370708,-3467.382065 9146.590623,-3334.905526 9062.816506,-3166.371438 9075.755449,-3078.571537 9188.896081,-2923.749254 9353.063634,-2759.987917 9366.316585,-2680.721408 9334.655278,-2540.335034 9211.744612,-2434.611410 9119.299070,-2267.474158 9106.667835,-2187.096727 9106.231458,-2184.294855 9116.029996,-2102.846244 9095.646554,-1792.789407 9149.949572,-1543.030876 9147.553999,-1472.290383 9080.645386,-1338.618648 9084.208723,-1228.073534 9132.401898,-1075.378887 9103.024678,-978.726990 9128.298473,-926.090080 9095.020844,-714.171168 9153.096512,-527.876766 9229.294408,-406.160255 9281.606913,-313.091705 9227.296195,-118.777898 9249.535656,38.692315 9340.972078,162.355273 9473.464999,252.250814 9472.043826,444.185845 9642.843856,727.441988 9652.438343,796.906252 9657.127390,1007.017220 9758.685922,1128.577366 9929.310283,1182.809168 10142.339999,1185.969090 10288.749036,1208.308872 10325.808442,1239.693782 10356.172152,1334.047680 10419.582755,1443.036244 10514.147688,1529.602611 10574.396519,1672.351371 10592.765722,1798.942232 10630.647922,1895.452390 10744.918944,2062.129150 10850.569680,2173.140137 10910.636255,2289.081408 10919.205461,2394.465818 10905.081069,2475.192215 10965.624551,2575.040269 11043.752932,2658.522868 11129.879930,2697.206913 11250.175209,2684.075497 11379.935210,2696.279538"/>
    <poly id="127482096" type="waterway.river" color="181,209,209" fill="0" layer="-4.00" shape="15668.756273,-196.913551 15638.567136,-21.184817 15553.047713,88.112875 15477.465560,179.326410 15435.530490,246.184835 15375.569162,384.440612 15304.869592,489.982710 15276.910259,510.890081 15238.242329,535.298525 14994.779323,609.424970 14768.351994,781.731491 14615.146892,872.207290 14509.639031,996.519675 14405.666617,1146.092711 14323.216940,1227.740981 14235.267002,1288.189606 14141.048727,1325.237042 13872.201508,1467.110769 13694.501773,1551.361487 13683.842717,1556.420269 13476.702667,1762.841922 13271.848193,1986.279230 13215.821151,2193.518829 13165.869467,2271.848601 13144.970147,2355.536115 13076.741198,2470.970737 12962.175946,2548.597555 12833.785520,2580.566816 12729.522167,2644.624130 12643.706542,2804.209737 12596.666933,2996.657017 12587.803106,3246.208259 12620.425015,3397.817032 12634.444732,3489.144049 12665.565023,3530.107101 12645.575295,3639.332018 12656.698644,3697.268982 12647.351472,3753.747723"/>
    <poly id="191446789" type="landuse.industrial" color="209,209,204" fill="1" layer="-3.00" shape="12935.998077,5795.204589 12773.866403,5731.722465 12665.202747,5909.928052 12584.529044,5998.177635 12721.781531,6060.472631 12778.154856,6020.647729 12777.404537,5940.398677 12881.759645,5959.790225 12928.042568,5830.075317 12987.471509,5863.968516 12968.661663,5932.191448 13075.293252,5987.374908 13084.828254,5865.012302 13047.403177,5829.318504 12935.998077,5795.204589"/>
    <poly id="191446790" type="landuse.industrial" color="209,209,204" fill="1" layer="-3.00" shape="12796.896563,6158.103633 12517.306347,6031.244777 12377.136896,6211.061754 12366.675145,6263.378498 12604.298701,6369.639077 12685.544676,6248.628563 12724.698782,6203.605521 12780.334684,6152.439964 12796.896563,6158.103633"/>
    <poly id="191446793" type="natural.coastline" color="140,196,107" fill="0" layer="-4.00" shape="7816.023978,5596.259542 7798.946150,5609.820988 7480.961395,5706.409368 7026.262904,5834.190494 6940.217329,5856.032400 6858.353825,5848.053262 6774.628143,5820.353909 6612.990494,5725.658408 6537.603290,5702.836448 6484.013319,5710.984954 6342.596711,5764.871897 6160.482659,5794.163836 6027.415828,5789.033742 6008.752348,5790.389963 5990.652248,5809.856785 5958.759825,5811.907640 5914.047140,5799.169034 5896.371966,5764.007622 5867.210009,5758.820975 5822.558769,5742.963547 5748.597438,5706.504206 5733.323886,5716.103491 5722.478508,5731.264473 5714.244207,5735.854011 5701.434238,5736.622831 5691.937770,5732.928784 5684.476861,5725.749399 5681.498283,5715.570780 5684.012656,5697.879470 5652.365163,5678.248173 5647.543828,5687.293749 5629.171298,5679.016951 5632.257946,5673.561824 5616.511176,5663.664306 5610.322091,5666.167963 5598.730257,5684.669990 5605.177124,5687.734247 5584.285235,5731.340506 5672.138051,5777.541853 5667.287765,5789.751792 5701.532603,5804.974653 5707.945471,5796.767035 5718.803726,5792.622234 5736.391042,5791.257937 5748.389921,5795.128198 5755.794618,5806.559836 5757.755371,5818.719912 5756.838360,5832.485273 5751.336884,5840.986093 5737.974925,5848.952406 5716.594340,5845.498823 5673.508146,5828.114438 5560.461561,5769.899473 5456.956968,5723.931524 5387.723638,5683.270307 5312.353530,5642.504948 5189.924506,5582.436647 5098.489168,5538.934194 5085.963367,5520.064598 5080.033084,5504.927627 5115.130683,5444.649716 5114.718231,5407.697100 5077.500560,5384.686401 5049.749305,5388.377639 5037.579904,5366.826867 5003.876960,5351.683111 4986.097169,5352.945976 4938.377229,5332.877548 4898.252250,5326.986248 4875.482719,5314.627744 4855.432794,5326.257447 4799.083488,5291.473669 4785.499555,5291.242625 4827.823123,5321.623372 4822.452551,5330.382490 4811.067882,5323.947941 4796.264747,5334.101288 4765.987341,5333.064427 4735.877672,5352.330026 4737.785000,5363.289527 4844.787220,5398.934602 4865.887660,5387.322755 4899.874469,5385.302747 4904.157135,5409.828338 4871.326534,5435.809861"/>
    <poly id="191446801" type="natural.coastline" color="140,196,107" fill="0" layer="-4.00" shape="7254.278121,5178.666549 7175.112477,5272.207488 7155.236304,5278.425987 7146.993687,5289.232566 7160.682424,5301.862861 7148.619133,5322.075696 7271.148010,5476.648252 7165.761583,5557.974297 7040.155115,5412.111980 7015.689612,5429.922610 6992.767646,5400.342169 6895.209237,5452.634988 6843.992812,5450.294581 6808.373895,5520.428014 6803.410520,5553.168243 6773.050133,5615.363892 6752.683348,5607.716071 6689.320143,5715.304970 6803.811288,5784.389869 6878.959573,5799.548129 6938.704742,5816.628282 7364.654873,5700.013849 7506.775273,5653.609889 7809.032818,5577.181611 7816.023978,5596.259542"/>
    <poly id="191446806" type="natural.coastline" color="140,196,107" fill="0" layer="-4.00" shape="15463.815158,7551.020168 15424.355382,7547.370461 15222.811766,7361.332503 15188.705250,7305.287453 15182.796918,7228.595452 15225.332315,7066.018841 15211.364338,7029.302139 14987.479186,6902.651292 14777.621496,6768.969174 14646.907100,6711.141028 14482.803536,6676.768306 14367.004769,6683.396780 14303.104730,6694.630984 14278.651533,6710.952309 14261.246230,6701.882613 14145.234781,6720.182396 14111.897551,6741.450221 14075.450958,6732.765733 13980.218777,6736.133740 13978.521646,6748.496301 13823.207551,6714.299004 13704.857864,6700.468629 13559.840754,6703.667559 13537.427326,6687.945170 13442.341156,6683.293689 13415.089270,6692.281805 13418.320903,6715.672851 13418.042388,6730.982007 13399.706055,6732.836187 13387.439669,6723.140242 13392.158378,6704.991153 13392.715496,6674.361743 13263.374979,6661.071597 13223.742278,6666.192916 13243.409160,6752.605166 13260.616787,6772.607531 13296.239965,6786.381412 13393.878180,6811.500138 13407.308301,6797.885015 13445.336769,6800.042816 13463.873567,6827.354959 13459.008665,6853.530491 13429.391544,6871.948319 13245.912509,6816.106335 13212.906834,6779.036905 13168.068164,6668.091346 12896.683264,6615.038228 12801.292110,6586.324467 12715.092140,6535.167982 12645.871780,6517.146777 12628.615361,6540.166838 12611.820339,6537.675401 12603.314246,6522.207455 12619.358730,6485.306064 12520.677739,6436.114036 12520.783348,6511.231844 12563.946655,6553.589958 12585.899625,6553.986795 12605.711771,6551.424309 12605.395423,6568.920471 12619.785774,6583.040037 12600.243649,6611.127242"/>
    <poly id="191446811" type="natural.coastline" color="140,196,107" fill="0" layer="-4.00" shape="12600.243649,6611.127242 12573.947825,6607.742271 12506.122602,6552.545002 12460.389624,6490.451233 12386.804898,6430.042732 12281.213939,6317.274013 12262.477919,6294.170407 12236.808501,6262.501878 12179.152866,6251.989878 12087.681234,6156.502960 12043.048830,6086.180730 11995.942559,6008.440441 11934.063006,5954.033335 11882.201662,5918.519158 11838.406499,5888.436407 11779.585952,5849.910579 11718.149256,5799.711145 11608.177984,5715.836685 11579.219851,5697.082533 11541.670072,5627.112862 11495.348079,5597.098048 11474.803045,5558.805685 11434.657363,5510.667298 11374.604999,5470.212797 11345.235821,5433.939450 11299.786573,5395.923668 11262.246196,5366.078706 11201.826819,5346.030405 11202.845013,5330.001680 11239.209177,5302.933614 11189.388368,5263.374508 11163.062623,5302.293773 11159.524469,5336.523198 11149.277535,5336.340023 11172.118589,5369.564048 11194.754116,5372.889431 11207.686911,5386.979925 11208.823546,5405.234902 11189.674982,5411.466721 11162.073040,5398.568769 11126.294587,5351.976156 11055.697506,5311.369265 11056.739442,5296.817940 11062.904831,5292.952434 11115.957801,5322.473853 11122.636587,5311.054972 11071.586801,5258.359561 11038.903813,5243.183628 11001.765373,5190.726111 10953.244235,5160.686787 10901.500041,5105.781457 10852.134244,5081.557963 10804.785258,5026.731759 10766.916132,5015.118240 10723.067025,4969.105811 10700.473689,4962.862054 10680.368299,4940.626905 10613.271057,4883.984497 10561.379777,4878.685619 10545.164228,4843.382755 10556.125453,4803.455061 10342.936272,4657.020447 10278.040767,4673.125367 10212.109181,4690.767174 10169.377012,4726.555837 10111.362312,4859.753913 10121.131506,4886.912455 10207.126679,4951.181561 10202.298645,4975.893522"/>
    <poly id="191446814" type="natural.coastline" color="140,196,107" fill="0" layer="-4.00" shape="10202.298645,4975.893522 10100.291857,4905.510396 10078.365347,4862.089541 10078.895512,4832.181894 10165.898734,4674.700102 10137.601005,4618.750631 10132.646619,4567.601691 10091.492062,4534.778407 10042.579993,4525.882564 9980.842785,4497.070628 9933.272441,4495.495310 9916.820680,4473.316000 9893.644076,4459.046653 9870.097697,4465.193017 9849.769225,4455.349602 9841.564507,4422.377931 9807.412553,4407.181770 9743.888389,4396.574774 9717.519320,4396.841586 9710.480297,4380.670401 9716.188821,4347.933710 9657.142773,4332.298328 9652.071368,4370.876449 9659.614455,4399.460797 9722.592744,4441.429136 9745.308957,4440.375942 9753.156581,4452.186079 9749.190215,4469.617493 9732.992183,4474.439452 9644.591247,4421.083410 9600.193300,4364.130020 9475.955570,4307.944582 9272.876444,4278.834353 9234.591043,4248.976158 9193.768665,4238.051963 9153.031746,4222.743030 9061.198409,4239.362001 9044.872150,4251.479201 9030.906899,4254.154282 9021.672147,4237.934122 9019.348870,4203.612182 8974.830566,4194.800837 8963.350914,4223.050088 8966.957822,4267.611143 8984.875707,4289.813947 9021.929690,4306.523063 9068.714163,4311.721036 9076.498955,4327.171730 9065.241436,4342.298640 9024.979838,4341.590719 8950.794843,4312.568855 8939.792841,4271.520319 8895.878209,4270.016017 8723.194115,4303.465149 8459.281535,4319.263158 8273.380489,4354.679089 8225.809308,4353.114870 8058.965159,4388.136206 7988.219228,4402.382377"/>
    <poly id="191453130" type="waterway.river" color="181,209,209" fill="0" layer="-4.00" shape="12647.351472,3753.747723 12639.425873,3827.909442 12699.448893,4046.256677 12971.710785,4291.612366 13042.073145,4369.791317 13105.981872,4531.065589 13143.333553,4655.999826 13144.506092,4812.460836 13102.738336,4937.992071 13025.947252,5136.838357 12918.270080,5390.229989 12716.282748,5775.123677 12580.544786,5886.464621 12514.878968,5970.599635 12391.572105,6101.180578 12332.344677,6218.271467 12262.477919,6294.170407"/>
    <poly id="220285733" type="amenity.bus_station" color="237,199,199" fill="1" layer="-1.00" shape="7089.174503,4929.154304 7111.152625,4902.128137 7152.044190,4824.058537 7139.026863,4801.256759 7069.310461,4848.188852 7052.645667,4849.055202 7026.949329,4877.627379 7026.534455,4887.992154 7089.174503,4929.154304"/>
    <poly id="220476148" type="amenity.place_of_worship" color="237,199,199" fill="1" layer="-1.00" shape="7935.370991,3963.005333 7935.073279,3941.967432 7914.497244,3942.252915 7914.786608,3963.290667 7935.370991,3963.005333"/>
    <poly id="220476148#1" type="building.yes" color="255,230,230" fill="1" layer="-1.00" shape="7935.370991,3963.005333 7935.073279,3941.967432 7914.497244,3942.252915 7914.786608,3963.290667 7935.370991,3963.005333"/>
    <poly id="220476149" type="amenity.place_of_worship" color="237,199,199" fill="1" layer="-1.00" shape="7550.470904,4053.363508 7571.713072,4052.955337 7575.978901,4046.066711 7564.406348,4026.254330 7549.143566,4025.211743 7550.470904,4053.363508"/>
    <poly id="220476149#1" type="building.yes" color="255,230,230" fill="1" layer="-1.00" shape="7550.470904,4053.363508 7571.713072,4052.955337 7575.978901,4046.066711 7564.406348,4026.254330 7549.143566,4025.211743 7550.470904,4053.363508"/>
    <poly id="220476150" type="amenity.place_of_worship" color="237,199,199" fill="1" layer="-1.00" shape="7230.290488,3144.347790 7245.933365,3140.065892 7242.689931,3116.100917 7225.237314,3108.324903 7222.510111,3128.344124 7230.290488,3144.347790"/>
    <poly id="220476150#1" type="building.yes" color="255,230,230" fill="1" layer="-1.00" shape="7230.290488,3144.347790 7245.933365,3140.065892 7242.689931,3116.100917 7225.237314,3108.324903 7222.510111,3128.344124 7230.290488,3144.347790"/>
    <poly id="220694995" type="building.hospital" color="255,230,230" fill="1" layer="-1.00" shape="7362.442248,4478.347284 7336.438361,4456.163777 7355.912454,4433.514571 7383.408034,4456.967785 7399.620954,4438.104378 7370.542546,4413.302152 7392.634753,4387.600210 7420.594446,4411.450287 7431.906734,4398.287512 7385.989531,4359.111868 7375.321093,4371.519649 7379.298852,4374.909049 7356.254025,4401.716093 7352.715485,4398.700788 7337.515433,4416.382542 7341.683846,4419.930698 7321.325553,4443.619566 7318.276097,4441.012538 7307.805292,4453.190635 7315.279911,4459.572353 7312.181653,4463.172113 7319.739172,4469.621903 7322.451223,4466.470746 7351.413410,4491.181930 7362.442248,4478.347284"/>
    <poly id="220695087" type="leisure.park" color="207,245,201" fill="1" layer="-2.00" shape="8570.113365,4124.801562 8569.621649,4075.575773 8604.618446,4073.490382 8605.090281,4123.837435 8570.113365,4124.801562"/>
    <poly id="220959802" type="landuse.farmland" color="194,194,130" fill="1" layer="-3.00" shape="4861.772390,2456.303372 4847.349479,2469.983454 4845.972185,2479.254675 4836.353602,2484.943337 4831.910546,2484.057165 4835.464045,2489.769865 4826.657936,2494.672812 4825.121794,2501.909175 4811.655101,2507.343678 4808.063412,2515.755521 4783.840370,2509.691579 4749.884223,2468.526988 4756.186759,2455.519408 4753.838931,2450.626770 4737.360044,2430.358391 4768.295527,2410.695577 4780.320910,2430.688468 4830.146256,2408.715087 4837.821049,2422.371075 4848.476414,2439.320318 4861.772390,2456.303372"/>
    <poly id="220959803" type="landuse.farmland" color="194,194,130" fill="1" layer="-3.00" shape="5303.589812,3661.886037 5263.300566,3600.033471 5258.486997,3585.415219 5258.322418,3559.571662 5251.682702,3544.522488 5237.349701,3529.342072 5215.649186,3506.762410 5207.643700,3500.773667 5198.084613,3503.031472 5186.710078,3516.562959 5174.605954,3525.040468 5163.005377,3527.663278 5137.893962,3514.720140 5108.070608,3493.012883 5090.869296,3479.804951 5051.627886,3487.609314 5033.760162,3489.326034 5063.019597,3508.602540 5096.985111,3525.127654 5112.137373,3540.121862 5121.990955,3567.951707 5133.444734,3597.618918 5149.324808,3617.267402 5178.205899,3634.516889 5205.936235,3648.715273 5233.999512,3666.561803 5247.473246,3672.443995 5257.171435,3662.515253 5288.076552,3680.399385 5293.834346,3663.340816 5303.589812,3661.886037"/>
    <poly id="220959806" type="amenity.place_of_worship" color="237,199,199" fill="1" layer="-1.00" shape="10564.582081,4673.653719 10583.881675,4676.018250 10584.395476,4667.465366 10581.177857,4667.285954 10582.564027,4656.494259 10569.088132,4655.299439 10564.582081,4673.653719"/>
    <poly id="220959806#1" type="building.yes" color="255,230,230" fill="1" layer="-1.00" shape="10564.582081,4673.653719 10583.881675,4676.018250 10584.395476,4667.465366 10581.177857,4667.285954 10582.564027,4656.494259 10569.088132,4655.299439 10564.582081,4673.653719"/>
    <poly id="220959996" type="amenity.place_of_worship" color="237,199,199" fill="1" layer="-1.00" shape="10740.895032,4156.685511 10754.580232,4157.040350 10755.002607,4140.412444 10741.317376,4140.057604 10740.895032,4156.685511"/>
    <poly id="220959996#1" type="building.yes" color="255,230,230" fill="1" layer="-1.00" shape="10740.895032,4156.685511 10754.580232,4157.040350 10755.002607,4140.412444 10741.317376,4140.057604 10740.895032,4156.685511"/>
    <poly id="247789320" type="historic.castle" color="128,255,128" fill="1" layer="-1.00" shape="7037.219618,4303.261210 6978.209066,4298.419948 6987.737610,4360.605486 7014.770575,4349.157757 7042.867582,4329.200004 7037.219618,4303.261210"/>
    <poly id="247789324" type="building.yes" color="255,230,230" fill="1" layer="-1.00" shape="7466.123441,4047.800517 7454.795152,4059.430503 7443.761477,4048.767004 7455.089763,4037.137001 7466.123441,4047.800517"/>
    <poly id="247789324#1" type="tourism.museum" color="207,245,201" fill="1" layer="-2.00" shape="7466.123441,4047.800517 7454.795152,4059.430503 7443.761477,4048.767004 7455.089763,4037.137001 7466.123441,4047.800517"/>
    <poly id="247789327" type="building.yes" color="255,230,230" fill="1" layer="-1.00" shape="7471.429093,4023.162068 7481.200162,4014.036974 7490.729181,4024.174674 7480.966520,4033.299901 7471.429093,4023.162068"/>
    <poly id="247789327#1" type="tourism.museum" color="207,245,201" fill="1" layer="-2.00" shape="7471.429093,4023.162068 7481.200162,4014.036974 7490.729181,4024.174674 7480.966520,4033.299901 7471.429093,4023.162068"/>
    <poly id="247789328" type="leisure.park" color="207,245,201" fill="1" layer="-2.00" shape="7076.922212,3662.975725 7053.625886,3656.153869 7023.441551,3632.799920 6995.759226,3610.655398 6991.062830,3595.293876 6994.034434,3580.065005 7008.716633,3570.968725 7020.362619,3570.626088 7045.046968,3583.279686 7086.636201,3604.676807 7101.663469,3617.429943 7088.788689,3657.662041 7076.922212,3662.975725"/>
    <poly id="288160883" type="building.apartments" color="255,230,230" fill="1" layer="-1.00" shape="10508.896697,4467.852062 10516.231195,4472.035852 10528.714212,4457.676886 10521.795617,4450.912995 10508.896697,4467.852062"/>
    <poly id="288807647" type="landuse.residential" color="235,235,227" fill="1" layer="-3.00" shape="11570.356924,3306.217577 11580.791357,3285.304835 11602.545502,3267.771076 11595.114384,3253.923038 11545.068732,3284.409262 11487.099353,3299.451033 11497.554243,3336.551723 11523.310899,3331.738174 11524.364661,3317.520279 11570.356924,3306.217577"/>
    <poly id="293672467" type="amenity.university" color="237,199,199" fill="1" layer="-1.00" shape="5637.342791,5531.296369 5423.310241,5439.573154 5391.099923,5423.742385 5417.857588,5389.153026 5451.280425,5365.549312 5473.133355,5321.803659 5502.877821,5265.522478 5629.752987,5320.974658 5648.262793,5314.906361 5706.306833,5328.582309 5700.763992,5357.148851 5729.858118,5375.714898 5637.342791,5531.296369"/>
    <poly id="303766044" type="building.roof" color="255,230,230" fill="1" layer="-1.00" shape="9726.680315,4281.066957 9731.345752,4265.480222 9757.623048,4273.285178 9759.079782,4268.424717 9767.069207,4270.798086 9762.796381,4285.103560 9749.151582,4281.053298 9747.310582,4287.195151 9726.680315,4281.066957"/>
    <poly id="303766045" type="amenity.place_of_worship" color="237,199,199" fill="1" layer="-1.00" shape="11249.904293,5228.709347 11251.073305,5214.126993 11268.883105,5215.545017 11267.713859,5230.138470 11249.904293,5228.709347"/>
    <poly id="303766045#1" type="building.yes" color="255,230,230" fill="1" layer="-1.00" shape="11249.904293,5228.709347 11251.073305,5214.126993 11268.883105,5215.545017 11267.713859,5230.138470 11249.904293,5228.709347"/>
    <poly id="307339102" type="natural.coastline" color="140,196,107" fill="0" layer="-4.00" shape="4871.326534,5435.809861 4835.874258,5431.564183 4756.499477,5399.520492 4716.948946,5390.519508 4680.843085,5363.365493 4622.656011,5344.675944 4577.090266,5320.493324 4553.569884,5290.422140 4511.836165,5225.706094 4488.580205,5210.742068 4449.231356,5189.775104 4387.367863,5172.080096 4314.331628,5166.156101 4303.918822,5160.882620 4294.131189,5155.930677 4287.242262,5161.532913 4259.631691,5156.900998 4255.152863,5143.821525 4223.144306,5152.118897 4193.617816,5168.276136 4171.182984,5166.852588 4161.068869,5146.903939 4178.598884,5098.806262 4073.603683,5067.369416 4066.211317,5071.919500 4068.451475,5155.753487 4079.573062,5177.795616 4090.754129,5165.491910 4130.466905,5195.824334 4121.900072,5208.172205 4164.933189,5227.112043 4168.996346,5233.954679 4192.985409,5236.437275 4210.667865,5241.422791 4220.790965,5260.327830 4201.078251,5282.892035 4172.885308,5281.892919 4015.758864,5182.435665"/>
    <poly id="307339104" type="aeroway.helipad" color="grey" fill="1" layer="-2.00" shape="5976.860769,5764.478791 5961.588815,5760.751839 5957.747185,5776.377003 5973.019107,5780.103947 5976.860769,5764.478791"/>
    <poly id="307339105" type="aeroway.helipad" color="grey" fill="1" layer="-2.00" shape="5947.339446,5757.209049 5932.067464,5753.482160 5928.226085,5769.096236 5943.498036,5772.823118 5947.339446,5757.209049"/>
    <poly id="307339108" type="man_made.pipeline" color="255,230,230" fill="0" layer="-1.00" shape="5270.048789,3696.937626 5131.007796,3611.313944 5097.379023,3531.130925 5017.223812,3483.980651 4906.943011,3365.548265 4743.745129,3287.328038 4724.555810,3217.797459 4642.564644,3001.506825 4567.083612,2955.473933 4530.954720,2898.660232 4499.152882,2802.898226 4409.380804,2736.858459 4366.215426,2663.791370 4325.467043,2540.816674 4265.633092,2433.643281 4252.930038,2351.209387 4265.968417,2290.543115 4243.513245,2230.631090 4213.676995,2160.977678 4150.222076,2070.156919 4140.472680,1992.015249 4109.166826,1921.593515 4059.805389,1870.733170 4005.056201,1833.018958 3956.366671,1829.998387 3888.349414,1878.133204 3868.876901,1893.995342 3799.049292,1874.428795 3727.555512,1865.861753 3605.692641,1822.611831 3396.796885,1772.748815 3242.911928,1701.016906 3131.618513,1731.520311 3001.213688,1624.863570 2968.108775,1616.946969 2875.369807,1642.623474 2841.377184,1643.520730 2738.000187,1554.244280 2642.943669,1320.171672 2675.484855,1184.606503 2724.841466,883.031692 2683.088060,508.544368 2686.875440,458.581652 2744.655071,360.205342 2776.818033,203.269149 2774.378856,128.172823 2778.317256,-18.929806 2778.747336,-44.674038 2789.144400,-92.338676 2757.799945,-161.299512 2718.845071,-306.175656 2672.400576,-444.569309 2638.783378,-510.624730 2602.355629,-541.403381 2569.739614,-578.747675 2526.648488,-653.055660"/>
    <poly id="307339135" type="landuse.industrial" color="209,209,204" fill="1" layer="-3.00" shape="5296.145913,3697.904946 5263.169003,3671.323718 5244.490745,3694.935750 5276.920114,3722.551399 5296.145913,3697.904946"/>
    <poly id="307339141" type="waterway.stream" color="181,209,209" fill="0" layer="-4.00" shape="5353.361172,155.408929 5351.881605,181.968322 5352.793708,208.901652 5365.400470,231.947951 5389.287220,255.186735 5385.007866,265.341142 5365.027881,273.517567 5338.226688,280.556067 5322.066943,305.499220 5304.469095,334.848655 5307.079050,402.354163 5302.203896,427.722987 5277.192788,465.518894 5250.743520,481.080982 5212.707009,491.792841 5206.632938,498.663085 5182.158858,550.415929 5175.210320,562.690388 5162.916314,569.199302 5149.202750,567.666475 5112.859038,570.412288 5083.920648,580.502379 5056.354585,600.432474 5046.815634,612.662958 5031.783313,643.144908 5007.286272,711.677060 4996.893968,758.750675 4985.402171,778.965587 4970.421600,791.103597 4952.894466,800.610937 4930.482113,807.470070 4920.054299,810.646383 4913.742098,816.213557 4909.540078,834.742453 4904.132087,893.527513 4898.873878,913.315498 4892.770136,921.473619 4879.451308,927.443638 4874.125741,935.359593 4865.290663,952.255113 4854.731401,963.180340 4839.056465,970.665043 4818.209801,977.018076 4790.095761,983.769645 4781.750073,986.726101 4778.497338,995.454653 4779.856384,1006.582407 4789.505710,1033.863907 4790.529249,1049.883127 4784.094409,1062.688566 4768.093677,1073.521488 4750.133666,1077.858256 4711.604099,1074.727777 4680.452549,1077.563763 4594.840423,1081.530442 4575.037235,1087.901841 4571.106019,1105.402757 4573.065846,1143.136316 4565.413679,1166.237520 4552.865503,1203.214284 4542.162714,1222.654774 4528.557655,1230.175199 4470.472839,1231.767124 4446.090007,1232.386782 4435.605807,1239.438322 4431.275706,1250.214228 4432.074028,1264.175198 4443.362109,1301.544795 4444.046382,1322.732970 4440.255674,1331.963355 4432.962260,1334.416094 4412.796055,1330.976340 4378.818087,1316.975454 4347.167859,1319.027040 4322.219890,1322.735728 4309.172058,1327.678590 4296.523410,1339.857357 4291.628128,1353.721971 4294.294852,1379.585402 4306.130967,1415.420501 4303.799974,1430.872047 4295.854156,1441.064923 4281.719682,1449.087638 4252.946439,1464.613802 4204.808973,1495.470189 4117.318991,1570.069322 4104.385806,1592.659742 4111.421947,1613.377735 4180.536733,1719.007262 4181.747222,1734.485399 4168.297907,1743.819136 4138.476233,1760.238559 4114.007667,1809.851503 4115.635305,1844.458880 4133.964950,1896.260897 4129.813210,1923.408229 4086.985332,1966.825530 4046.714065,2121.377144 4030.735034,2149.057676 4003.788441,2170.678692 4004.110312,2194.958887 4022.208871,2216.596528 4050.865969,2225.175811 4086.141658,2235.332849 4121.858956,2263.153926 4164.397759,2367.601625 4165.589796,2427.942300 4132.191953,2525.209754 4154.814225,2585.179816 4218.075706,2642.894578 4228.689928,2670.291683 4203.769619,2702.973149 4172.847042,2741.438663 4181.166815,2773.205457"/>
    <poly id="307339144" type="waterway.river" color="181,209,209" fill="0" layer="-4.00" shape="4181.166815,2773.205457 4213.351297,2791.406252 4294.654191,2786.896566 4317.875925,2810.831602 4313.051526,2877.688925 4349.920911,2924.653064 4365.702146,2995.535029 4370.326905,3114.777747 4391.689699,3161.479516 4469.746549,3217.237624 4501.354920,3269.254939 4542.119577,3351.654730 4608.554231,3408.649808 4619.479497,3431.933046 4602.782674,3494.491173 4617.318834,3527.507906 4713.907296,3618.852049 4732.701362,3655.150650 4732.682799,3687.920359 4676.920330,3796.543302 4654.488536,3847.188509 4653.120559,3896.048245 4664.527631,3923.093180 4772.628316,3970.592573 4779.320590,3989.506640 4768.770150,4007.583463 4709.199028,4054.376922 4697.791472,4091.239573 4700.416980,4127.274591 4722.947898,4165.791054 4773.617718,4229.493936 4814.530274,4265.091757 4828.589735,4294.336436 4820.492296,4326.424660 4799.218459,4372.791607 4752.943086,4431.082039 4724.467152,4488.598062 4698.069443,4614.365871 4696.108489,4666.424859 4703.147018,4727.775974 4695.086451,4758.243655 4642.094961,4830.923356 4509.419212,4961.316946 4425.787615,5029.180717 4342.377851,5123.245185 4303.918822,5160.882620"/>
    <poly id="313226404" type="leisure.pitch" color="207,245,201" fill="1" layer="-2.00" shape="11013.065648,5158.301010 11038.027842,5128.851763 11052.782449,5141.264295 11027.811826,5170.713343 11013.065648,5158.301010"/>