<?xml version="1.0" encoding="UTF-8"?>

<!-- generated on 2021-11-21 21:12:14 by Eclipse SUMO duarouter Version 1.10.0
<configuration xmlns:xsi="http://www.w3.org/2001/XMLSchema-instance" xsi:noNamespaceSchemaLocation="http://sumo.dlr.de/xsd/duarouterConfiguration.xsd">

    <input>
        <net-file value="rize.net.xml"/>
        <route-files value="od_file.odtrips.xml"/>
    </input>

    <output>
        <output-file value="od_route_file.odtrips.rou.xml"/>
        <alternatives-output value="od_route_file.odtrips.rou.alt.xml"/>
    </output>

    <report>
        <xml-validation value="never"/>
        <xml-validation.routes value="never"/>
        <no-step-log value="true"/>
    </report>

</configuration>
-->

<routes xmlns:xsi="http://www.w3.org/2001/XMLSchema-instance" xsi:noNamespaceSchemaLocation="http://sumo.dlr.de/xsd/routes_file.xsd">
    <vehicle id="62" depart="0.79" departLane="free" departSpeed="max" fromTaz="1" toTaz="3">
        <route edges="307329904#1 -778936907#12 -778936907#11 -778936907#10 -778936907#9 -220476164 220476169#3 707247680 610262465#1 707247682#1 707247686 707245213#1 220285678#0 220285678#1 220285678#2 220285678#3"/>
    </vehicle>
    <vehicle id="282" depart="2.83" departLane="free" departSpeed="max" fromTaz="2" toTaz="3">
        <route edges="220285679 -612003763#1 -612003763#0 220285681 967234360#6 967234360#7 611398285 611398281 611398277#1 220401030#0 220401030#1 220401030#2 -220959824#3 -220959824#2 -220959824#1 -220959824#0 -220959917#1 -220959917#0 707245214 220285678#2 220285678#3"/>
    </vehicle>
    <vehicle id="518" depart="4.77" departLane="free" departSpeed="max" fromTaz="2" toTaz="3">
        <route edges="220285679 -612003763#1 -612003763#0 220285681 967234360#6 967234360#7 611398285 611398281 611398277#1 220401030#0 220401030#1 220401030#2 -220959824#3 -220959824#2 -220959824#1 -220959824#0 -220959917#1 -220959917#0 707245214 220285678#2 220285678#3"/>
    </vehicle>
    <vehicle id="244" depart="11.12" departLane="free" departSpeed="max" fromTaz="2" toTaz="3">
        <route edges="220285679 -612003763#1 -612003763#0 220285681 967234360#6 967234360#7 611398285 611398281 611398277#1 220401030#0 220401030#1 220401030#2 -220959824#3 -220959824#2 -220959824#1 -220959824#0 -220959917#1 -220959917#0 707245214 220285678#2 220285678#3"/>
    </vehicle>
    <vehicle id="87" depart="16.72" departLane="free" departSpeed="max" fromTaz="1" toTaz="3">
        <route edges="307329904#1 -778936907#12 -778936907#11 -778936907#10 -778936907#9 -220476164 220476169#3 707247680 610262465#1 707247682#1 707247686 707245213#1 220285678#0 220285678#1 220285678#2 220285678#3"/>
    </vehicle>
    <vehicle id="9" depart="18.39" departLane="free" departSpeed="max" fromTaz="1" toTaz="2">
        <route edges="307329904#1 778936907#13 967234362 220285699#0 220285699#1 220285699#2 -612003763#2 -612003763#1 -612003763#0 220285681 967234360#6 220285679"/>
    </vehicle>
    <vehicle id="748" depart="18.97" departLane="free" departSpeed="max" fromTaz="2" toTaz="3">
        <route edges="220285679 -612003763#1 -612003763#0 220285681 967234360#6 967234360#7 611398285 611398281 611398277#1 220401030#0 220401030#1 220401030#2 -220959824#3 -220959824#2 -220959824#1 -220959824#0 -220959917#1 -220959917#0 707245214 220285678#2 220285678#3"/>
    </vehicle>
    <vehicle id="411" depart="19.61" departLane="free" departSpeed="max" fromTaz="2" toTaz="3">
        <route edges="220285679 -612003763#1 -612003763#0 220285681 967234360#6 967234360#7 611398285 611398281 611398277#1 220401030#0 220401030#1 220401030#2 -220959824#3 -220959824#2 -220959824#1 -220959824#0 -220959917#1 -220959917#0 707245214 220285678#2 220285678#3"/>
    </vehicle>
    <vehicle id="116" depart="22.71" departLane="free" departSpeed="max" fromTaz="2" toTaz="3">
        <route edges="220285679 -612003763#1 -612003763#0 220285681 967234360#6 967234360#7 611398285 611398281 611398277#1 220401030#0 220401030#1 220401030#2 -220959824#3 -220959824#2 -220959824#1 -220959824#0 -220959917#1 -220959917#0 707245214 220285678#2 220285678#3"/>
    </vehicle>
    <vehicle id="390" depart="23.05" departLane="free" departSpeed="max" fromTaz="2" toTaz="3">
        <route edges="220285679 -612003763#1 -612003763#0 220285681 967234360#6 967234360#7 611398285 611398281 611398277#1 220401030#0 220401030#1 220401030#2 -220959824#3 -220959824#2 -220959824#1 -220959824#0 -220959917#1 -220959917#0 707245214 220285678#2 220285678#3"/>
    </vehicle>
    <vehicle id="197" depart="36.86" departLane="free" departSpeed="max" fromTaz="2" toTaz="3">
        <route edges="220285679 -612003763#1 -612003763#0 220285681 967234360#6 967234360#7 611398285 611398281 611398277#1 220401030#0 220401030#1 220401030#2 -220959824#3 -220959824#2 -220959824#1 -220959824#0 -220959917#1 -220959917#0 707245214 220285678#2 220285678#3"/>
    </vehicle>
    <vehicle id="525" depart="37.70" departLane="free" departSpeed="max" fromTaz="2" toTaz="3">
        <route edges="220285679 -612003763#1 -612003763#0 220285681 967234360#6 967234360#7 611398285 611398281 611398277#1 220401030#0 220401030#1 220401030#2 -220959824#3 -220959824#2 -220959824#1 -220959824#0 -220959917#1 -220959917#0 707245214 220285678#2 220285678#3"/>
    </vehicle>
    <vehicle id="141" depart="39.03" departLane="free" departSpeed="max" fromTaz="2" toTaz="3">
        <route edges="220285679 -612003763#1 -612003763#0 220285681 967234360#6 967234360#7 611398285 611398281 611398277#1 220401030#0 220401030#1 220401030#2 -220959824#3 -220959824#2 -220959824#1 -220959824#0 -220959917#1 -220959917#0 707245214 220285678#2 220285678#3"/>
    </vehicle>
    <vehicle id="570" depart="46.90" departLane="free" departSpeed="max" fromTaz="2" toTaz="3">
        <route edges="220285679 -612003763#1 -612003763#0 220285681 967234360#6 967234360#7 611398285 611398281 611398277#1 220401030#0 220401030#1 220401030#2 -220959824#3 -220959824#2 -220959824#1 -220959824#0 -220959917#1 -220959917#0 707245214 220285678#2 220285678#3"/>
    </vehicle>
    <vehicle id="771" depart="47.95" departLane="free" departSpeed="max" fromTaz="2" toTaz="3">
        <route edges="220285679 -612003763#1 -612003763#0 220285681 967234360#6 967234360#7 611398285 611398281 611398277#1 220401030#0 220401030#1 220401030#2 -220959824#3 -220959824#2 -220959824#1 -220959824#0 -220959917#1 -220959917#0 707245214 220285678#2 220285678#3"/>
    </vehicle>
    <vehicle id="542" depart="54.47" departLane="free" departSpeed="max" fromTaz="2" toTaz="3">
        <route edges="220285679 -612003763#1 -612003763#0 220285681 967234360#6 967234360#7 611398285 611398281 611398277#1 220401030#0 220401030#1 220401030#2 -220959824#3 -220959824#2 -220959824#1 -220959824#0 -220959917#1 -220959917#0 707245214 220285678#2 220285678#3"/>
    </vehicle>
    <vehicle id="5" depart="55.65" departLane="free" departSpeed="max" fromTaz="1" toTaz="2">
        <route edges="307329904#1 778936907#13 967234362 220285699#0 220285699#1 220285699#2 -612003763#2 -612003763#1 -612003763#0 220285681 967234360#6 220285679"/>
    </vehicle>
    <vehicle id="1050" depart="59.07" departLane="free" departSpeed="max" fromTaz="2" toTaz="3">
        <route edges="220285679 -612003763#1 -612003763#0 220285681 967234360#6 967234360#7 611398285 611398281 611398277#1 220401030#0 220401030#1 220401030#2 -220959824#3 -220959824#2 -220959824#1 -220959824#0 -220959917#1 -220959917#0 707245214 220285678#2 220285678#3"/>
    </vehicle>
    <vehicle id="596" depart="70.72" departLane="free" departSpeed="max" fromTaz="2" toTaz="3">
        <route edges="220285679 -612003763#1 -612003763#0 220285681 967234360#6 967234360#7 611398285 611398281 611398277#1 220401030#0 220401030#1 220401030#2 -220959824#3 -220959824#2 -220959824#1 -220959824#0 -220959917#1 -220959917#0 707245214 220285678#2 220285678#3"/>
    </vehicle>
    <vehicle id="1075" depart="72.86" departLane="free" departSpeed="max" fromTaz="2" toTaz="3">
        <route edges="220285679 -612003763#1 -612003763#0 220285681 967234360#6 967234360#7 611398285 611398281 611398277#1 220401030#0 220401030#1 220401030#2 -220959824#3 -220959824#2 -220959824#1 -220959824#0 -220959917#1 -220959917#0 707245214 220285678#2 220285678#3"/>
    </vehicle>
    <vehicle id="586" depart="73.98" departLane="free" departSpeed="max" fromTaz="2" toTaz="3">
        <route edges="220285679 -612003763#1 -612003763#0 220285681 967234360#6 967234360#7 611398285 611398281 611398277#1 220401030#0 220401030#1 220401030#2 -220959824#3 -220959824#2 -220959824#1 -220959824#0 -220959917#1 -220959917#0 707245214 220285678#2 220285678#3"/>
    </vehicle>
    <vehicle id="710" depart="76.05" departLane="free" departSpeed="max" fromTaz="2" toTaz="3">
        <route edges="220285679 -612003763#1 -612003763#0 220285681 967234360#6 967234360#7 611398285 611398281 611398277#1 220401030#0 220401030#1 220401030#2 -220959824#3 -220959824#2 -220959824#1 -220959824#0 -220959917#1 -220959917#0 707245214 220285678#2 220285678#3"/>
    </vehicle>
    <vehicle id="550" depart="76.76" departLane="free" departSpeed="max" fromTaz="2" toTaz="3">
        <route edges="220285679 -612003763#1 -612003763#0 220285681 967234360#6 967234360#7 611398285 611398281 611398277#1 220401030#0 220401030#1 220401030#2 -220959824#3 -220959824#2 -220959824#1 -220959824#0 -220959917#1 -220959917#0 707245214 220285678#2 220285678#3"/>
    </vehicle>
    <vehicle id="417" depart="77.89" departLane="free" departSpeed="max" fromTaz="2" toTaz="3">
        <route edges="220285679 -612003763#1 -612003763#0 220285681 967234360#6 967234360#7 611398285 611398281 611398277#1 220401030#0 220401030#1 220401030#2 -220959824#3 -220959824#2 -220959824#1 -220959824#0 -220959917#1 -220959917#0 707245214 220285678#2 220285678#3"/>
    </vehicle>
    <vehicle id="828" depart="88.88" departLane="free" departSpeed="max" fromTaz="2" toTaz="3">
        <route edges="220285679 -612003763#1 -612003763#0 220285681 967234360#6 967234360#7 611398285 611398281 611398277#1 220401030#0 220401030#1 220401030#2 -220959824#3 -220959824#2 -220959824#1 -220959824#0 -220959917#1 -220959917#0 707245214 220285678#2 220285678#3"/>
    </vehicle>
    <vehicle id="1005" depart="89.14" departLane="free" departSpeed="max" fromTaz="2" toTaz="3">
        <route edges="220285679 -612003763#1 -612003763#0 220285681 967234360#6 967234360#7 611398285 611398281 611398277#1 220401030#0 220401030#1 220401030#2 -220959824#3 -220959824#2 -220959824#1 -220959824#0 -220959917#1 -220959917#0 707245214 220285678#2 220285678#3"/>
    </vehicle>
    <vehicle id="906" depart="92.51" departLane="free" departSpeed="max" fromTaz="2" toTaz="3">
        <route edges="220285679 -612003763#1 -612003763#0 220285681 967234360#6 967234360#7 611398285 611398281 611398277#1 220401030#0 220401030#1 220401030#2 -220959824#3 -220959824#2 -220959824#1 -220959824#0 -220959917#1 -220959917#0 707245214 220285678#2 220285678#3"/>
    </vehicle>
    <vehicle id="914" depart="95.90" departLane="free" departSpeed="max" fromTaz="2" toTaz="3">
        <route edges="220285679 -612003763#1 -612003763#0 220285681 967234360#6 967234360#7 611398285 611398281 611398277#1 220401030#0 220401030#1 220401030#2 -220959824#3 -220959824#2 -220959824#1 -220959824#0 -220959917#1 -220959917#0 707245214 220285678#2 220285678#3"/>
    </vehicle>
    <vehicle id="222" depart="101.43" departLane="free" departSpeed="max" fromTaz="2" toTaz="3">
        <route edges="220285679 -612003763#1 -612003763#0 220285681 967234360#6 967234360#7 611398285 611398281 611398277#1 220401030#0 220401030#1 220401030#2 -220959824#3 -220959824#2 -220959824#1 -220959824#0 -220959917#1 -220959917#0 707245214 220285678#2 220285678#3"/>
    </vehicle>
    <vehicle id="507" depart="105.18" departLane="free" departSpeed="max" fromTaz="2" toTaz="3">
        <route edges="220285679 -612003763#1 -612003763#0 220285681 967234360#6 967234360#7 611398285 611398281 611398277#1 220401030#0 220401030#1 220401030#2 -220959824#3 -220959824#2 -220959824#1 -220959824#0 -220959917#1 -220959917#0 707245214 220285678#2 220285678#3"/>
    </vehicle>
    <vehicle id="398" depart="106.94" departLane="free" departSpeed="max" fromTaz="2" toTaz="3">
        <route edges="220285679 -612003763#1 -612003763#0 220285681 967234360#6 967234360#7 611398285 611398281 611398277#1 220401030#0 220401030#1 220401030#2 -220959824#3 -220959824#2 -220959824#1 -220959824#0 -220959917#1 -220959917#0 707245214 220285678#2 220285678#3"/>
    </vehicle>
    <vehicle id="366" depart="107.93" departLane="free" departSpeed="max" fromTaz="2" toTaz="3">
        <route edges="220285679 -612003763#1 -612003763#0 220285681 967234360#6 967234360#7 611398285 611398281 611398277#1 220401030#0 220401030#1 220401030#2 -220959824#3 -220959824#2 -220959824#1 -220959824#0 -220959917#1 -220959917#0 707245214 220285678#2 220285678#3"/>
    </vehicle>
    <vehicle id="694" depart="108.25" departLane="free" departSpeed="max" fromTaz="2" toTaz="3">
        <route edges="220285679 -612003763#1 -612003763#0 220285681 967234360#6 967234360#7 611398285 611398281 611398277#1 220401030#0 220401030#1 220401030#2 -220959824#3 -220959824#2 -220959824#1 -220959824#0 -220959917#1 -220959917#0 707245214 220285678#2 220285678#3"/>
    </vehicle>
    <vehicle id="872" depart="108.86" departLane="free" departSpeed="max" fromTaz="2" toTaz="3">
        <route edges="220285679 -612003763#1 -612003763#0 220285681 967234360#6 967234360#7 611398285 611398281 611398277#1 220401030#0 220401030#1 220401030#2 -220959824#3 -220959824#2 -220959824#1 -220959824#0 -220959917#1 -220959917#0 707245214 220285678#2 220285678#3"/>
    </vehicle>
    <vehicle id="883" depart="110.09" departLane="free" departSpeed="max" fromTaz="2" toTaz="3">
        <route edges="220285679 -612003763#1 -612003763#0 220285681 967234360#6 967234360#7 611398285 611398281 611398277#1 220401030#0 220401030#1 220401030#2 -220959824#3 -220959824#2 -220959824#1 -220959824#0 -220959917#1 -220959917#0 707245214 220285678#2 220285678#3"/>
    </vehicle>
    <vehicle id="369" depart="114.89" departLane="free" departSpeed="max" fromTaz="2" toTaz="3">
        <route edges="220285679 -612003763#1 -612003763#0 220285681 967234360#6 967234360#7 611398285 611398281 611398277#1 220401030#0 220401030#1 220401030#2 -220959824#3 -220959824#2 -220959824#1 -220959824#0 -220959917#1 -220959917#0 707245214 220285678#2 220285678#3"/>
    </vehicle>
    <vehicle id="128" depart="116.59" departLane="free" departSpeed="max" fromTaz="2" toTaz="3">
        <route edges="220285679 -612003763#1 -612003763#0 220285681 967234360#6 967234360#7 611398285 611398281 611398277#1 220401030#0 220401030#1 220401030#2 -220959824#3 -220959824#2 -220959824#1 -220959824#0 -220959917#1 -220959917#0 707245214 220285678#2 220285678#3"/>
    </vehicle>
    <vehicle id="959" depart="120.35" departLane="free" departSpeed="max" fromTaz="2" toTaz="3">
        <route edges="220285679 -612003763#1 -612003763#0 220285681 967234360#6 967234360#7 611398285 611398281 611398277#1 220401030#0 220401030#1 220401030#2 -220959824#3 -220959824#2 -220959824#1 -220959824#0 -220959917#1 -220959917#0 707245214 220285678#2 220285678#3"/>
    </vehicle>
    <vehicle id="943" depart="127.28" departLane="free" departSpeed="max" fromTaz="2" toTaz="3">
        <route edges="220285679 -612003763#1 -612003763#0 220285681 967234360#6 967234360#7 611398285 611398281 611398277#1 220401030#0 220401030#1 220401030#2 -220959824#3 -220959824#2 -220959824#1 -220959824#0 -220959917#1 -220959917#0 707245214 220285678#2 220285678#3"/>
    </vehicle>
    <vehicle id="919" depart="138.74" departLane="free" departSpeed="max" fromTaz="2" toTaz="3">
        <route edges="220285679 -612003763#1 -612003763#0 220285681 967234360#6 967234360#7 611398285 611398281 611398277#1 220401030#0 220401030#1 220401030#2 -220959824#3 -220959824#2 -220959824#1 -220959824#0 -220959917#1 -220959917#0 707245214 220285678#2 220285678#3"/>
    </vehicle>
    <vehicle id="647" depart="145.86" departLane="free" departSpeed="max" fromTaz="2" toTaz="3">
        <route edges="220285679 -612003763#1 -612003763#0 220285681 967234360#6 967234360#7 611398285 611398281 611398277#1 220401030#0 220401030#1 220401030#2 -220959824#3 -220959824#2 -220959824#1 -220959824#0 -220959917#1 -220959917#0 707245214 220285678#2 220285678#3"/>
    </vehicle>
    <vehicle id="317" depart="150.40" departLane="free" departSpeed="max" fromTaz="2" toTaz="3">
        <route edges="220285679 -612003763#1 -612003763#0 220285681 967234360#6 967234360#7 611398285 611398281 611398277#1 220401030#0 220401030#1 220401030#2 -220959824#3 -220959824#2 -220959824#1 -220959824#0 -220959917#1 -220959917#0 707245214 220285678#2 220285678#3"/>
    </vehicle>
    <vehicle id="545" depart="153.28" departLane="free" departSpeed="max" fromTaz="2" toTaz="3">
        <route edges="220285679 -612003763#1 -612003763#0 220285681 967234360#6 967234360#7 611398285 611398281 611398277#1 220401030#0 220401030#1 220401030#2 -220959824#3 -220959824#2 -220959824#1 -220959824#0 -220959917#1 -220959917#0 707245214 220285678#2 220285678#3"/>
    </vehicle>
    <vehicle id="564" depart="153.62" departLane="free" departSpeed="max" fromTaz="2" toTaz="3">
        <route edges="220285679 -612003763#1 -612003763#0 220285681 967234360#6 967234360#7 611398285 611398281 611398277#1 220401030#0 220401030#1 220401030#2 -220959824#3 -220959824#2 -220959824#1 -220959824#0 -220959917#1 -220959917#0 707245214 220285678#2 220285678#3"/>
    </vehicle>
    <vehicle id="649" depart="159.54" departLane="free" departSpeed="max" fromTaz="2" toTaz="3">
        <route edges="220285679 -612003763#1 -612003763#0 220285681 967234360#6 967234360#7 611398285 611398281 611398277#1 220401030#0 220401030#1 220401030#2 -220959824#3 -220959824#2 -220959824#1 -220959824#0 -220959917#1 -220959917#0 707245214 220285678#2 220285678#3"/>
    </vehicle>
    <vehicle id="18" depart="163.02" departLane="free" departSpeed="max" fromTaz="1" toTaz="3">
        <route edges="307329904#1 -778936907#12 -778936907#11 -778936907#10 -778936907#9 -220476164 220476169#3 707247680 610262465#1 707247682#1 707247686 707245213#1 220285678#0 220285678#1 220285678#2 220285678#3"/>
    </vehicle>
    <vehicle id="566" depart="167.76" departLane="free" departSpeed="max" fromTaz="2" toTaz="3">
        <route edges="220285679 -612003763#1 -612003763#0 220285681 967234360#6 967234360#7 611398285 611398281 611398277#1 220401030#0 220401030#1 220401030#2 -220959824#3 -220959824#2 -220959824#1 -220959824#0 -220959917#1 -220959917#0 707245214 220285678#2 220285678#3"/>
    </vehicle>
    <vehicle id="91" depart="169.75" departLane="free" departSpeed="max" fromTaz="1" toTaz="3">
        <route edges="307329904#1 -778936907#12 -778936907#11 -778936907#10 -778936907#9 -220476164 220476169#3 707247680 610262465#1 707247682#1 707247686 707245213#1 220285678#0 220285678#1 220285678#2 220285678#3"/>
    </vehicle>
    <vehicle id="1052" depart="179.28" departLane="free" departSpeed="max" fromTaz="2" toTaz="3">
        <route edges="220285679 -612003763#1 -612003763#0 220285681 967234360#6 967234360#7 611398285 611398281 611398277#1 220401030#0 220401030#1 220401030#2 -220959824#3 -220959824#2 -220959824#1 -220959824#0 -220959917#1 -220959917#0 707245214 220285678#2 220285678#3"/>
    </vehicle>
    <vehicle id="136" depart="179.52" departLane="free" departSpeed="max" fromTaz="2" toTaz="3">
        <route edges="220285679 -612003763#1 -612003763#0 220285681 967234360#6 967234360#7 611398285 611398281 611398277#1 220401030#0 220401030#1 220401030#2 -220959824#3 -220959824#2 -220959824#1 -220959824#0 -220959917#1 -220959917#0 707245214 220285678#2 220285678#3"/>
    </vehicle>
    <vehicle id="456" depart="182.42" departLane="free" departSpeed="max" fromTaz="2" toTaz="3">
        <route edges="220285679 -612003763#1 -612003763#0 220285681 967234360#6 967234360#7 611398285 611398281 611398277#1 220401030#0 220401030#1 220401030#2 -220959824#3 -220959824#2 -220959824#1 -220959824#0 -220959917#1 -220959917#0 707245214 220285678#2 220285678#3"/>
    </vehicle>
    <vehicle id="1022" depart="185.27" departLane="free" departSpeed="max" fromTaz="2" toTaz="3">
        <route edges="220285679 -612003763#1 -612003763#0 220285681 967234360#6 967234360#7 611398285 611398281 611398277#1 220401030#0 220401030#1 220401030#2 -220959824#3 -220959824#2 -220959824#1 -220959824#0 -220959917#1 -220959917#0 707245214 220285678#2 220285678#3"/>
    </vehicle>
    <vehicle id="72" depart="186.01" departLane="free" departSpeed="max" fromTaz="1" toTaz="3">
        <route edges="307329904#1 -778936907#12 -778936907#11 -778936907#10 -778936907#9 -220476164 220476169#3 707247680 610262465#1 707247682#1 707247686 707245213#1 220285678#0 220285678#1 220285678#2 220285678#3"/>
    </vehicle>
    <vehicle id="377" depart="187.53" departLane="free" departSpeed="max" fromTaz="2" toTaz="3">
        <route edges="220285679 -612003763#1 -612003763#0 220285681 967234360#6 967234360#7 611398285 611398281 611398277#1 220401030#0 220401030#1 220401030#2 -220959824#3 -220959824#2 -220959824#1 -220959824#0 -220959917#1 -220959917#0 707245214 220285678#2 220285678#3"/>
    </vehicle>
    <vehicle id="502" depart="200.43" departLane="free" departSpeed="max" fromTaz="2" toTaz="3">
        <route edges="220285679 -612003763#1 -612003763#0 220285681 967234360#6 967234360#7 611398285 611398281 611398277#1 220401030#0 220401030#1 220401030#2 -220959824#3 -220959824#2 -220959824#1 -220959824#0 -220959917#1 -220959917#0 707245214 220285678#2 220285678#3"/>
    </vehicle>
    <vehicle id="255" depart="202.95" departLane="free" departSpeed="max" fromTaz="2" toTaz="3">
        <route edges="220285679 -612003763#1 -612003763#0 220285681 967234360#6 967234360#7 611398285 611398281 611398277#1 220401030#0 220401030#1 220401030#2 -220959824#3 -220959824#2 -220959824#1 -220959824#0 -220959917#1 -220959917#0 707245214 220285678#2 220285678#3"/>
    </vehicle>
    <vehicle id="61" depart="207.72" departLane="free" departSpeed="max" fromTaz="1" toTaz="3">
        <route edges="307329904#1 -778936907#12 -778936907#11 -778936907#10 -778936907#9 -220476164 220476169#3 707247680 610262465#1 707247682#1 707247686 707245213#1 220285678#0 220285678#1 220285678#2 220285678#3"/>
    </vehicle>
    <vehicle id="332" depart="208.04" departLane="free" departSpeed="max" fromTaz="2" toTaz="3">
        <route edges="220285679 -612003763#1 -612003763#0 220285681 967234360#6 967234360#7 611398285 611398281 611398277#1 220401030#0 220401030#1 220401030#2 -220959824#3 -220959824#2 -220959824#1 -220959824#0 -220959917#1 -220959917#0 707245214 220285678#2 220285678#3"/>
    </vehicle>
    <vehicle id="164" depart="211.05" departLane="free" departSpeed="max" fromTaz="2" toTaz="3">
        <route edges="220285679 -612003763#1 -612003763#0 220285681 967234360#6 967234360#7 611398285 611398281 611398277#1 220401030#0 220401030#1 220401030#2 -220959824#3 -220959824#2 -220959824#1 -220959824#0 -220959917#1 -220959917#0 707245214 220285678#2 220285678#3"/>
    </vehicle>
    <vehicle id="67" depart="212.57" departLane="free" departSpeed="max" fromTaz="1" toTaz="3">
        <route edges="307329904#1 -778936907#12 -778936907#11 -778936907#10 -778936907#9 -220476164 220476169#3 707247680 610262465#1 707247682#1 707247686 707245213#1 220285678#0 220285678#1 220285678#2 220285678#3"/>
    </vehicle>
    <vehicle id="146" depart="214.16" departLane="free" departSpeed="max" fromTaz="2" toTaz="3">
        <route edges="220285679 -612003763#1 -612003763#0 220285681 967234360#6 967234360#7 611398285 611398281 611398277#1 220401030#0 220401030#1 220401030#2 -220959824#3 -220959824#2 -220959824#1 -220959824#0 -220959917#1 -220959917#0 707245214 220285678#2 220285678#3"/>
    </vehicle>
    <vehicle id="917" depart="218.23" departLane="free" departSpeed="max" fromTaz="2" toTaz="3">
        <route edges="220285679 -612003763#1 -612003763#0 220285681 967234360#6 967234360#7 611398285 611398281 611398277#1 220401030#0 220401030#1 220401030#2 -220959824#3 -220959824#2 -220959824#1 -220959824#0 -220959917#1 -220959917#0 707245214 220285678#2 220285678#3"/>
    </vehicle>
    <vehicle id="400" depart="220.27" departLane="free" departSpeed="max" fromTaz="2" toTaz="3">
        <route edges="220285679 -612003763#1 -612003763#0 220285681 967234360#6 967234360#7 611398285 611398281 611398277#1 220401030#0 220401030#1 220401030#2 -220959824#3 -220959824#2 -220959824#1 -220959824#0 -220959917#1 -220959917#0 707245214 220285678#2 220285678#3"/>
    </vehicle>
    <vehicle id="1061" depart="220.53" departLane="free" departSpeed="max" fromTaz="2" toTaz="3">
        <route edges="220285679 -612003763#1 -612003763#0 220285681 967234360#6 967234360#7 611398285 611398281 611398277#1 220401030#0 220401030#1 220401030#2 -220959824#3 -220959824#2 -220959824#1 -220959824#0 -220959917#1 -220959917#0 707245214 220285678#2 220285678#3"/>
    </vehicle>
    <vehicle id="408" depart="220.65" departLane="free" departSpeed="max" fromTaz="2" toTaz="3">
        <route edges="220285679 -612003763#1 -612003763#0 220285681 967234360#6 967234360#7 611398285 611398281 611398277#1 220401030#0 220401030#1 220401030#2 -220959824#3 -220959824#2 -220959824#1 -220959824#0 -220959917#1 -220959917#0 707245214 220285678#2 220285678#3"/>
    </vehicle>
    <vehicle id="263" depart="222.36" departLane="free" departSpeed="max" fromTaz="2" toTaz="3">
        <route edges="220285679 -612003763#1 -612003763#0 220285681 967234360#6 967234360#7 611398285 611398281 611398277#1 220401030#0 220401030#1 220401030#2 -220959824#3 -220959824#2 -220959824#1 -220959824#0 -220959917#1 -220959917#0 707245214 220285678#2 220285678#3"/>
    </vehicle>
    <vehicle id="361" depart="224.07" departLane="free" departSpeed="max" fromTaz="2" toTaz="3">
        <route edges="220285679 -612003763#1 -612003763#0 220285681 967234360#6 967234360#7 611398285 611398281 611398277#1 220401030#0 220401030#1 220401030#2 -220959824#3 -220959824#2 -220959824#1 -220959824#0 -220959917#1 -220959917#0 707245214 220285678#2 220285678#3"/>
    </vehicle>
    <vehicle id="964" depart="227.50" departLane="free" departSpeed="max" fromTaz="2" toTaz="3">
        <route edges="220285679 -612003763#1 -612003763#0 220285681 967234360#6 967234360#7 611398285 611398281 611398277#1 220401030#0 220401030#1 220401030#2 -220959824#3 -220959824#2 -220959824#1 -220959824#0 -220959917#1 -220959917#0 707245214 220285678#2 220285678#3"/>
    </vehicle>
    <vehicle id="1099" depart="232.39" departLane="free" departSpeed="max" fromTaz="2" toTaz="3">
        <route edges="220285679 -612003763#1 -612003763#0 220285681 967234360#6 967234360#7 611398285 611398281 611398277#1 220401030#0 220401030#1 220401030#2 -220959824#3 -220959824#2 -220959824#1 -220959824#0 -220959917#1 -220959917#0 707245214 220285678#2 220285678#3"/>
    </vehicle>
    <vehicle id="944" depart="236.20" departLane="free" departSpeed="max" fromTaz="2" toTaz="3">
        <route edges="220285679 -612003763#1 -612003763#0 220285681 967234360#6 967234360#7 611398285 611398281 611398277#1 220401030#0 220401030#1 220401030#2 -220959824#3 -220959824#2 -220959824#1 -220959824#0 -220959917#1 -220959917#0 707245214 220285678#2 220285678#3"/>
    </vehicle>
    <vehicle id="26" depart="238.38" departLane="free" departSpeed="max" fromTaz="1" toTaz="3">
        <route edges="307329904#1 -778936907#12 -778936907#11 -778936907#10 -778936907#9 -220476164 220476169#3 707247680 610262465#1 707247682#1 707247686 707245213#1 220285678#0 220285678#1 220285678#2 220285678#3"/>
    </vehicle>
    <vehicle id="533" depart="240.80" departLane="free" departSpeed="max" fromTaz="2" toTaz="3">
        <route edges="220285679 -612003763#1 -612003763#0 220285681 967234360#6 967234360#7 611398285 611398281 611398277#1 220401030#0 220401030#1 220401030#2 -220959824#3 -220959824#2 -220959824#1 -220959824#0 -220959917#1 -220959917#0 707245214 220285678#2 220285678#3"/>
    </vehicle>
    <vehicle id="510" depart="243.94" departLane="free" departSpeed="max" fromTaz="2" toTaz="3">
        <route edges="220285679 -612003763#1 -612003763#0 220285681 967234360#6 967234360#7 611398285 611398281 611398277#1 220401030#0 220401030#1 220401030#2 -220959824#3 -220959824#2 -220959824#1 -220959824#0 -220959917#1 -220959917#0 707245214 220285678#2 220285678#3"/>
    </vehicle>
    <vehicle id="273" depart="244.16" departLane="free" departSpeed="max" fromTaz="2" toTaz="3">
        <route edges="220285679 -612003763#1 -612003763#0 220285681 967234360#6 967234360#7 611398285 611398281 611398277#1 220401030#0 220401030#1 220401030#2 -220959824#3 -220959824#2 -220959824#1 -220959824#0 -220959917#1 -220959917#0 707245214 220285678#2 220285678#3"/>
    </vehicle>
    <vehicle id="820" depart="244.71" departLane="free" departSpeed="max" fromTaz="2" toTaz="3">
        <route edges="220285679 -612003763#1 -612003763#0 220285681 967234360#6 967234360#7 611398285 611398281 611398277#1 220401030#0 220401030#1 220401030#2 -220959824#3 -220959824#2 -220959824#1 -220959824#0 -220959917#1 -220959917#0 707245214 220285678#2 220285678#3"/>
    </vehicle>
    <vehicle id="916" depart="248.19" departLane="free" departSpeed="max" fromTaz="2" toTaz="3">
        <route edges="220285679 -612003763#1 -612003763#0 220285681 967234360#6 967234360#7 611398285 611398281 611398277#1 220401030#0 220401030#1 220401030#2 -220959824#3 -220959824#2 -220959824#1 -220959824#0 -220959917#1 -220959917#0 707245214 220285678#2 220285678#3"/>
    </vehicle>
    <vehicle id="699" depart="259.99" departLane="free" departSpeed="max" fromTaz="2" toTaz="3">
        <route edges="220285679 -612003763#1 -612003763#0 220285681 967234360#6 967234360#7 611398285 611398281 611398277#1 220401030#0 220401030#1 220401030#2 -220959824#3 -220959824#2 -220959824#1 -220959824#0 -220959917#1 -220959917#0 707245214 220285678#2 220285678#3"/>
    </vehicle>