<?xml version="1.0" encoding="UTF-8"?>

<!-- generated on 2021-11-04 16:20:25 by Eclipse SUMO polyconvert Version 1.10.0
<configuration xmlns:xsi="http://www.w3.org/2001/XMLSchema-instance" xsi:noNamespaceSchemaLocation="http://sumo.dlr.de/xsd/polyconvertConfiguration.xsd">

    <input>
        <net-file value="osm.net.xml"/>
        <osm-files value="osm_bbox.osm.xml"/>
        <osm.keep-full-type value="true"/>
        <type-file value="C:\Program%20Files%20(x86)\Eclipse\Sumo\data\typemap\osmPolyconvert.typ.xml"/>
    </input>

    <output>
        <output-file value="osm.poly.xml"/>
    </output>

    <processing>
        <poi-layer-offset value="5"/>
    </processing>

    <report>
        <verbose value="true"/>
    </report>

</configuration>
-->

<additional xmlns:xsi="http://www.w3.org/2001/XMLSchema-instance" xsi:noNamespaceSchemaLocation="http://sumo.dlr.de/xsd/additional_file.xsd">
    <location netOffset="-624332.72,-4539284.37" convBoundary="-1859.23,-1353.02,8603.04,5911.17" origBoundary="40.455869,40.983368,40.581239,41.047206" projParameter="+proj=utm +zone=37 +ellps=WGS84 +datum=WGS84 +units=m +no_defs"/>

    <poly id="191446793" type="natural.coastline" color="140,196,107" fill="0" layer="-4.00" shape="3430.143978,4896.299542 3413.066150,4909.860988 3095.081395,5006.449368 2640.382904,5134.230494 2554.337329,5156.072400 2472.473825,5148.093262 2388.748143,5120.393909 2227.110494,5025.698408 2151.723290,5002.876448 2098.133319,5011.024954 1956.716711,5064.911897 1774.602659,5094.203836 1641.535828,5089.073742 1622.872348,5090.429963 1604.772248,5109.896785 1572.879825,5111.947640 1528.167140,5099.209034 1510.491966,5064.047622 1481.330009,5058.860975 1436.678769,5043.003547 1362.717438,5006.544206 1347.443886,5016.143491 1336.598508,5031.304473 1328.364207,5035.894011 1315.554238,5036.662831 1306.057770,5032.968784 1298.596861,5025.789399 1295.618283,5015.610780 1298.132656,4997.919470 1266.485163,4978.288173 1261.663828,4987.333749 1243.291298,4979.056951 1246.377946,4973.601824 1230.631176,4963.704306 1224.442091,4966.207963 1212.850257,4984.709990 1219.297124,4987.774247 1198.405235,5031.380506 1286.258051,5077.581853 1281.407765,5089.791792 1315.652603,5105.014653 1322.065471,5096.807035 1332.923726,5092.662234 1350.511042,5091.297937 1362.509921,5095.168198 1369.914618,5106.599836 1371.875371,5118.759912 1370.958360,5132.525273 1365.456884,5141.026093 1352.094925,5148.992406 1330.714340,5145.538823 1287.628146,5128.154438 1174.581561,5069.939473 1071.076968,5023.971524 1001.843638,4983.310307 926.473530,4942.544948 804.044506,4882.476647 712.609168,4838.974194 700.083367,4820.104598 694.153084,4804.967627 729.250683,4744.689716 728.838231,4707.737100 691.620560,4684.726401 663.869305,4688.417639 651.699904,4666.866867 617.996960,4651.723111 600.217169,4652.985976 552.497229,4632.917548 512.372250,4627.026248 489.602719,4614.667744 469.552794,4626.297447 413.203488,4591.513669 399.619555,4591.282625 441.943123,4621.663372 436.572551,4630.422490 425.187882,4623.987941 410.384747,4634.141288 380.107341,4633.104427 349.997672,4652.370026 351.905000,4663.329527 458.907220,4698.974602 480.007660,4687.362755 513.994469,4685.342747 518.277135,4709.868338 485.446534,4735.849861"/>
    <poly id="191446801" type="natural.coastline" color="140,196,107" fill="0" layer="-4.00" shape="2868.398121,4478.706549 2789.232477,4572.247488 2769.356304,4578.465987 2761.113687,4589.272566 2774.802424,4601.902861 2762.739133,4622.115696 2885.268010,4776.688252 2779.881583,4858.014297 2654.275115,4712.151980 2629.809612,4729.962610 2606.887646,4700.382169 2509.329237,4752.674988 2458.112812,4750.334581 2422.493895,4820.468014 2417.530520,4853.208243 2387.170133,4915.403892 2366.803348,4907.756071 2303.440143,5015.344970 2417.931288,5084.429869 2493.079573,5099.588129 2552.824742,5116.668282 2978.774873,5000.053849 3120.895273,4953.649889 3423.152818,4877.221611 3430.143978,4896.299542"/>
    <poly id="191446811" type="natural.coastline" color="140,196,107" fill="0" layer="-4.00" shape="8214.363649,5911.167242 8188.067825,5907.782271 8120.242602,5852.585002 8074.509624,5790.491233 8000.924898,5730.082732 7895.333939,5617.314013 7876.597919,5594.210407 7850.928501,5562.541878 7793.272866,5552.029878 7701.801234,5456.542960 7657.168830,5386.220730 7610.062559,5308.480441 7548.183006,5254.073335 7496.321662,5218.559158 7452.526499,5188.476407 7393.705952,5149.950579 7332.269256,5099.751145 7222.297984,5015.876685 7193.339851,4997.122533 7155.790072,4927.152862 7109.468079,4897.138048 7088.923045,4858.845685 7048.777363,4810.707298 6988.724999,4770.252797 6959.355821,4733.979450 6913.906573,4695.963668 6876.366196,4666.118706 6815.946819,4646.070405 6816.965013,4630.041680 6853.329177,4602.973614 6803.508368,4563.414508 6777.182623,4602.333773 6773.644469,4636.563198 6763.397535,4636.380023 6786.238589,4669.604048 6808.874116,4672.929431 6821.806911,4687.019925 6822.943546,4705.274902 6803.794982,4711.506721 6776.193040,4698.608769 6740.414587,4652.016156 6669.817506,4611.409265 6670.859442,4596.857940 6677.024831,4592.992434 6730.077801,4622.513853 6736.756587,4611.094972 6685.706801,4558.399561 6653.023813,4543.223628 6615.885373,4490.766111 6567.364235,4460.726787 6515.620041,4405.821457 6466.254244,4381.597963 6418.905258,4326.771759 6381.036132,4315.158240 6337.187025,4269.145811 6314.593689,4262.902054 6294.488299,4240.666905 6227.391057,4184.024497 6175.499777,4178.725619 6159.284228,4143.422755 6170.245453,4103.495061 5957.056272,3957.060447 5892.160767,3973.165367 5826.229181,3990.807174 5783.497012,4026.595837 5725.482312,4159.793913 5735.251506,4186.952455 5821.246679,4251.221561 5816.418645,4275.933522"/>
    <poly id="191446814" type="natural.coastline" color="140,196,107" fill="0" layer="-4.00" shape="5816.418645,4275.933522 5714.411857,4205.550396 5692.485347,4162.129541 5693.015512,4132.221894 5780.018734,3974.740102 5751.721005,3918.790631 5746.766619,3867.641691 5705.612062,3834.818407 5656.699993,3825.922564 5594.962785,3797.110628 5547.392441,3795.535310 5530.940680,3773.356000 5507.764076,3759.086653 5484.217697,3765.233017 5463.889225,3755.389602 5455.684507,3722.417931 5421.532553,3707.221770 5358.008389,3696.614774 5331.639320,3696.881586 5324.600297,3680.710401 5330.308821,3647.973710 5271.262773,3632.338328 5266.191368,3670.916449 5273.734455,3699.500797 5336.712744,3741.469136 5359.428957,3740.415942 5367.276581,3752.226079 5363.310215,3769.657493 5347.112183,3774.479452 5258.711247,3721.123410 5214.313300,3664.170020 5090.075570,3607.984582 4886.996444,3578.874353 4848.711043,3549.016158 4807.888665,3538.091963 4767.151746,3522.783030 4675.318409,3539.402001 4658.992150,3551.519201 4645.026899,3554.194282 4635.792147,3537.974122 4633.468870,3503.652182 4588.950566,3494.840837 4577.470914,3523.090088 4581.077822,3567.651143 4598.995707,3589.853947 4636.049690,3606.563063 4682.834163,3611.761036 4690.618955,3627.211730 4679.361436,3642.338640 4639.099838,3641.630719 4564.914843,3612.608855 4553.912841,3571.560319 4509.998209,3570.056017 4337.314115,3603.505149 4073.401535,3619.303158 3887.500489,3654.719089 3839.929308,3653.154870 3673.085159,3688.176206 3602.339228,3702.422377"/>
    <poly id="220285733" type="amenity.bus_station" color="237,199,199" fill="1" layer="-1.00" shape="2703.294503,4229.194304 2725.272625,4202.168137 2766.164190,4124.098537 2753.146863,4101.296759 2683.430461,4148.228852 2666.765667,4149.095202 2641.069329,4177.667379 2640.654455,4188.032154 2703.294503,4229.194304"/>
    <poly id="220476148" type="amenity.place_of_worship" color="237,199,199" fill="1" layer="-1.00" shape="3549.490991,3263.045333 3549.193279,3242.007432 3528.617244,3242.292915 3528.906608,3263.330667 3549.490991,3263.045333"/>
    <poly id="220476148#1" type="building.mosque" color="255,230,230" fill="1" layer="-1.00" shape="3549.490991,3263.045333 3549.193279,3242.007432 3528.617244,3242.292915 3528.906608,3263.330667 3549.490991,3263.045333"/>
    <poly id="220476149" type="amenity.place_of_worship" color="237,199,199" fill="1" layer="-1.00" shape="3164.590904,3353.403508 3185.833072,3352.995337 3190.098901,3346.106711 3178.526348,3326.294330 3163.263566,3325.251743 3164.590904,3353.403508"/>
    <poly id="220476149#1" type="building.mosque" color="255,230,230" fill="1" layer="-1.00" shape="3164.590904,3353.403508 3185.833072,3352.995337 3190.098901,3346.106711 3178.526348,3326.294330 3163.263566,3325.251743 3164.590904,3353.403508"/>
    <poly id="220476150" type="amenity.place_of_worship" color="237,199,199" fill="1" layer="-1.00" shape="2844.410488,2444.387790 2860.053365,2440.105892 2856.809931,2416.140917 2839.357314,2408.364903 2836.630111,2428.384124 2844.410488,2444.387790"/>
    <poly id="220476150#1" type="building.mosque" color="255,230,230" fill="1" layer="-1.00" shape="2844.410488,2444.387790 2860.053365,2440.105892 2856.809931,2416.140917 2839.357314,2408.364903 2836.630111,2428.384124 2844.410488,2444.387790"/>
    <poly id="220694995" type="building.hospital" color="255,230,230" fill="1" layer="-1.00" shape="2976.562248,3778.387284 2950.558361,3756.203777 2970.032454,3733.554571 2997.528034,3757.007785 3013.740954,3738.144378 2984.662546,3713.342152 3006.754753,3687.640210 3034.714446,3711.490287 3046.026734,3698.327512 3000.109531,3659.151868 2989.441093,3671.559649 2993.418852,3674.949049 2970.374025,3701.756093 2966.835485,3698.740788 2951.635433,3716.422542 2955.803846,3719.970698 2935.445553,3743.659566 2932.396097,3741.052538 2921.925292,3753.230635 2929.399911,3759.612353 2926.301653,3763.212113 2933.859172,3769.661903 2936.571223,3766.510746 2965.533410,3791.221930 2976.562248,3778.387284"/>
    <poly id="220695087" type="leisure.park" color="207,245,201" fill="1" layer="-2.00" shape="4184.233365,3424.841562 4183.741649,3375.615773 4218.738446,3373.530382 4219.210281,3423.877435 4184.233365,3424.841562"/>
    <poly id="220959803" type="landuse.farmland" color="194,194,130" fill="1" layer="-3.00" shape="917.709812,2961.926037 877.420566,2900.073471 872.606997,2885.455219 872.442418,2859.611662 865.802702,2844.562488 851.469701,2829.382072 829.769186,2806.802410 821.763700,2800.813667 812.204613,2803.071472 800.830078,2816.602959 788.725954,2825.080468 777.125377,2827.703278 752.013962,2814.760140 722.190608,2793.052883 704.989296,2779.844951 665.747886,2787.649314 647.880162,2789.366034 677.139597,2808.642540 711.105111,2825.167654 726.257373,2840.161862 736.110955,2867.991707 747.564734,2897.658918 763.444808,2917.307402 792.325899,2934.556889 820.056235,2948.755273 848.119512,2966.601803 861.593246,2972.483995 871.291435,2962.555253 902.196552,2980.439385 907.954346,2963.380816 917.709812,2961.926037"/>
    <poly id="220959806" type="amenity.place_of_worship" color="237,199,199" fill="1" layer="-1.00" shape="6178.702081,3973.693719 6198.001675,3976.058250 6198.515476,3967.505366 6195.297857,3967.325954 6196.684027,3956.534259 6183.208132,3955.339439 6178.702081,3973.693719"/>
    <poly id="220959806#1" type="building.mosque" color="255,230,230" fill="1" layer="-1.00" shape="6178.702081,3973.693719 6198.001675,3976.058250 6198.515476,3967.505366 6195.297857,3967.325954 6196.684027,3956.534259 6183.208132,3955.339439 6178.702081,3973.693719"/>
    <poly id="220959996" type="amenity.place_of_worship" color="237,199,199" fill="1" layer="-1.00" shape="6355.015032,3456.725511 6368.700232,3457.080350 6369.122607,3440.452444 6355.437376,3440.097604 6355.015032,3456.725511"/>
    <poly id="220959996#1" type="building.mosque" color="255,230,230" fill="1" layer="-1.00" shape="6355.015032,3456.725511 6368.700232,3457.080350 6369.122607,3440.452444 6355.437376,3440.097604 6355.015032,3456.725511"/>
    <poly id="247789320" type="historic.castle" color="128,255,128" fill="1" layer="-1.00" shape="2651.339618,3603.301210 2592.329066,3598.459948 2601.857610,3660.645486 2628.890575,3649.197757 2656.987582,3629.240004 2651.339618,3603.301210"/>
    <poly id="247789324" type="building.yes" color="255,230,230" fill="1" layer="-1.00" shape="3080.243441,3347.840517 3068.915152,3359.470503 3057.881477,3348.807004 3069.209763,3337.177001 3080.243441,3347.840517"/>
    <poly id="247789324#1" type="tourism.museum" color="207,245,201" fill="1" layer="-2.00" shape="3080.243441,3347.840517 3068.915152,3359.470503 3057.881477,3348.807004 3069.209763,3337.177001 3080.243441,3347.840517"/>
    <poly id="247789327" type="building.yes" color="255,230,230" fill="1" layer="-1.00" shape="3085.549093,3323.202068 3095.320162,3314.076974 3104.849181,3324.214674 3095.086520,3333.339901 3085.549093,3323.202068"/>
    <poly id="247789327#1" type="tourism.museum" color="207,245,201" fill="1" layer="-2.00" shape="3085.549093,3323.202068 3095.320162,3314.076974 3104.849181,3324.214674 3095.086520,3333.339901 3085.549093,3323.202068"/>
    <poly id="247789328" type="leisure.park" color="207,245,201" fill="1" layer="-2.00" shape="2691.042212,2963.015725 2667.745886,2956.193869 2637.561551,2932.839920 2609.879226,2910.695398 2605.182830,2895.333876 2608.154434,2880.105005 2622.836633,2871.008725 2634.482619,2870.666088 2659.166968,2883.319686 2700.756201,2904.716807 2715.783469,2917.469943 2702.908689,2957.702041 2691.042212,2963.015725"/>
    <poly id="288160883" type="building.apartments" color="255,230,230" fill="1" layer="-1.00" shape="6123.016697,3767.892062 6130.351195,3772.075852 6142.834212,3757.716886 6135.915617,3750.952995 6123.016697,3767.892062"/>
    <poly id="293672467" type="amenity.university" color="237,199,199" fill="1" layer="-1.00" shape="1251.462791,4831.336369 1037.430241,4739.613154 1005.219923,4723.782385 1031.977588,4689.193026 1065.400425,4665.589312 1087.253355,4621.843659 1116.997821,4565.562478 1243.872987,4621.014658 1262.382793,4614.946361 1320.426833,4628.622309 1314.883992,4657.188851 1343.978118,4675.754898 1251.462791,4831.336369"/>
    <poly id="303766044" type="building.roof" color="255,230,230" fill="1" layer="-1.00" shape="5340.800315,3581.106957 5345.465752,3565.520222 5371.743048,3573.325178 5373.199782,3568.464717 5381.189207,3570.838086 5376.916381,3585.143560 5363.271582,3581.093298 5361.430582,3587.235151 5340.800315,3581.106957"/>
    <poly id="307339104" type="aeroway.helipad" color="grey" fill="1" layer="-2.00" shape="1590.980769,5064.518791 1575.708815,5060.791839 1571.867185,5076.417003 1587.139107,5080.143947 1590.980769,5064.518791"/>
    <poly id="307339105" type="aeroway.helipad" color="grey" fill="1" layer="-2.00" shape="1561.459446,5057.249049 1546.187464,5053.522160 1542.346085,5069.136236 1557.618036,5072.863118 1561.459446,5057.249049"/>
    <poly id="307339108" type="man_made.pipeline" color="255,230,230" fill="0" layer="-1.00" shape="884.168789,2996.977626 745.127796,2911.353944 711.499023,2831.170925 631.343812,2784.020651 521.063011,2665.588265 357.865129,2587.368038 338.675810,2517.837459 256.684644,2301.546825 181.203612,2255.513933 145.074720,2198.700232 113.272882,2102.938226 23.500804,2036.898459 -19.664574,1963.831370 -60.412957,1840.856674 -120.246908,1733.683281 -132.949962,1651.249387 -119.911583,1590.583115 -142.366755,1530.671090 -172.203005,1461.017678 -235.657924,1370.196919 -245.407320,1292.055249 -276.713174,1221.633515 -326.074611,1170.773170 -380.823799,1133.058958 -429.513329,1130.038387 -497.530586,1178.173204 -517.003099,1194.035342 -586.830708,1174.468795 -658.324488,1165.901753 -780.187359,1122.651831 -989.083115,1072.788815 -1142.968072,1001.056906 -1254.261487,1031.560311 -1384.666312,924.903570 -1417.771225,916.986969 -1510.510193,942.663474 -1544.502816,943.560730 -1647.879813,854.284280 -1742.936331,620.211672 -1710.395145,484.646503 -1661.038534,183.071692 -1702.791940,-191.415632 -1699.004560,-241.378348 -1641.224929,-339.754658 -1609.061967,-496.690851 -1611.501144,-571.787177 -1607.562744,-718.889806 -1607.132664,-744.634038 -1596.735600,-792.298676 -1628.080055,-861.259512 -1667.034929,-1006.135656 -1713.479424,-1144.529309 -1747.096622,-1210.584730 -1783.524371,-1241.363381 -1816.140386,-1278.707675 -1859.231512,-1353.015660"/>
    <poly id="307339135" type="landuse.industrial" color="209,209,204" fill="1" layer="-3.00" shape="910.265913,2997.944946 877.289003,2971.363718 858.610745,2994.975750 891.040114,3022.591399 910.265913,2997.944946"/>
    <poly id="362008132" type="leisure.park" color="207,245,201" fill="1" layer="-2.00" shape="4064.506497,3591.296246 3911.187875,3611.568431 3760.325097,3631.886664 3540.881290,3677.386421 3508.871532,3657.283872 3552.224627,3588.689238 3636.688861,3524.720757 3753.858878,3496.970958 3872.125671,3490.252707 4054.650370,3482.206376 4362.064196,3481.240447 4522.357644,3482.599259 4551.295844,3482.130334 4524.690223,3545.150168 4464.598220,3561.185509 4330.326877,3585.692385 4064.506497,3591.296246"/>
    <poly id="362008557" type="amenity.place_of_worship" color="237,199,199" fill="1" layer="-1.00" shape="2350.945786,4619.599411 2354.885607,4600.344995 2364.085794,4602.214077 2360.137543,4621.468343 2350.945786,4619.599411"/>
    <poly id="362008557#1" type="building.mosque" color="255,230,230" fill="1" layer="-1.00" shape="2350.945786,4619.599411 2354.885607,4600.344995 2364.085794,4602.214077 2360.137543,4621.468343 2350.945786,4619.599411"/>
    <poly id="362008559" type="amenity.place_of_worship" color="237,199,199" fill="1" layer="-1.00" shape="2606.835154,4196.208535 2609.304832,4175.462948 2623.831004,4177.180205 2621.361478,4197.914687 2606.835154,4196.208535"/>
    <poly id="362008559#1" type="building.mosque" color="255,230,230" fill="1" layer="-1.00" shape="2606.835154,4196.208535 2609.304832,4175.462948 2623.831004,4177.180205 2621.361478,4197.914687 2606.835154,4196.208535"/>
    <poly id="364280711" type="amenity.place_of_worship" color="237,199,199" fill="1" layer="-1.00" shape="3366.088590,3145.392722 3367.682707,3120.967469 3386.088822,3122.154017 3384.494450,3146.590369 3366.088590,3145.392722"/>
    <poly id="364280711#1" type="building.mosque" color="255,230,230" fill="1" layer="-1.00" shape="3366.088590,3145.392722 3367.682707,3120.967469 3386.088822,3122.154017 3384.494450,3146.590369 3366.088590,3145.392722"/>
    <poly id="364280712" type="amenity.place_of_worship" color="237,199,199" fill="1" layer="-1.00" shape="3966.948864,3046.202375 3967.670809,3025.115616 3986.826528,3025.772630 3986.104528,3046.859388 3966.948864,3046.202375"/>
    <poly id="364280712#1" type="building.mosque" color="255,230,230" fill="1" layer="-1.00" shape="3966.948864,3046.202375 3967.670809,3025.115616 3986.826528,3025.772630 3986.104528,3046.859388 3966.948864,3046.202375"/>
    <poly id="377499066" type="amenity.hospital" color="237,199,199" fill="1" layer="-1.00" shape="2910.179233,3746.330640 2963.956877,3680.956329 2988.137767,3645.385013 3010.027203,3651.239655 3060.400696,3690.459430 2972.631938,3814.909695 2938.322964,3781.388374 2910.179233,3746.330640"/>
    <poly id="543871807" type="building.apartments" color="255,230,230" fill="1" layer="-1.00" shape="4751.226538,3241.546492 4756.910792,3218.181655 4785.317386,3225.044655 4779.633045,3248.409473 4751.226538,3241.546492"/>
    <poly id="543871811" type="leisure.park" color="207,245,201" fill="1" layer="-2.00" shape="4748.889949,3258.196184 4752.711187,3243.205046 4774.622736,3248.765507 4770.793242,3263.745385 4748.889949,3258.196184"/>
    <poly id="543871813" type="building.apartments" color="255,230,230" fill="1" layer="-1.00" shape="4740.891529,3281.642470 4745.797778,3260.429412 4767.861583,3265.459494 4761.642350,3287.682202 4740.891529,3281.642470"/>
    <poly id="543871815" type="building.apartments" color="255,230,230" fill="1" layer="-1.00" shape="4732.876051,3309.885820 4739.088151,3288.062744 4760.378386,3293.079199 4753.891726,3315.685882 4732.876051,3309.885820"/>
    <poly id="543871817" type="landuse.construction" color="194,194,130" fill="1" layer="-3.00" shape="4688.187664,3431.199183 4710.709035,3358.546646 4777.770224,3376.250689 4758.500351,3440.442727 4688.187664,3431.199183"/>
    <poly id="543871821" type="aeroway.hangar" color="grey" fill="1" layer="-2.00" shape="4690.968054,3352.480390 4684.332586,3350.564695 4673.956559,3347.583785 4670.130003,3360.975747 4687.219686,3366.206869 4689.628861,3357.376349 4690.968054,3352.480390"/>
    <poly id="543871821#1" type="building.yes" color="255,230,230" fill="1" layer="-1.00" shape="4690.968054,3352.480390 4684.332586,3350.564695 4673.956559,3347.583785 4670.130003,3360.975747 4687.219686,3366.206869 4689.628861,3357.376349 4690.968054,3352.480390"/>
    <poly id="543871823" type="landuse.construction" color="194,194,130" fill="1" layer="-3.00" shape="4760.129649,3214.007286 4766.949667,3185.365359 4799.265759,3194.695876 4790.446941,3221.736799 4760.129649,3214.007286"/>
    <poly id="543871825" type="amenity.school" color="237,199,199" fill="1" layer="-1.00" shape="4763.276981,3325.745562 4763.802322,3324.089057 4801.151157,3205.600846 4863.044280,3222.181894 4824.117053,3343.329453 4763.276981,3325.745562"/>
    <poly id="543872094" type="landuse.construction" color="194,194,130" fill="1" layer="-3.00" shape="4599.356020,3306.627645 4468.610058,3272.781979 4521.605946,3069.514238 4652.472499,3103.396133 4640.140847,3128.876290 4634.171443,3141.208944 4622.293694,3165.753182 4613.871567,3190.835681 4627.055007,3193.921363 4599.356020,3306.627645"/>
    <poly id="543872819" type="building.yes" color="255,230,230" fill="1" layer="-1.00" shape="5587.947398,3521.314626 5595.022840,3505.015563 5568.890508,3493.769812 5567.589705,3512.614252 5587.947398,3521.314626"/>
    <poly id="543872820" type="building.yes" color="255,230,230" fill="1" layer="-1.00" shape="5599.240082,3490.076226 5609.161366,3469.796444 5586.397907,3458.743565 5576.468464,3479.012126 5599.240082,3490.076226"/>
    <poly id="543872821" type="building.yes" color="255,230,230" fill="1" layer="-1.00" shape="5600.162355,3507.805111 5592.685901,3522.053739 5615.983080,3531.450344 5622.551587,3517.185655 5600.162355,3507.805111"/>
    <poly id="543872822" type="building.yes" color="255,230,230" fill="1" layer="-1.00" shape="5605.830923,3493.069162 5614.326368,3472.097831 5636.707632,3481.933579 5628.220538,3502.905036 5605.830923,3493.069162"/>
    <poly id="543872823" type="building.yes" color="255,230,230" fill="1" layer="-1.00" shape="5602.651278,3442.773615 5608.185295,3432.788245 5599.288131,3430.853863 5603.647132,3420.259113 5628.537257,3426.630067 5619.974499,3439.526823 5613.425168,3439.410819 5610.909427,3447.073163 5602.651278,3442.773615"/>
    <poly id="543872824" type="building.yes" color="255,230,230" fill="1" layer="-1.00" shape="5522.548145,3530.562192 5526.969640,3514.527036 5549.081410,3520.582034 5544.660066,3536.606076 5522.548145,3530.562192"/>
    <poly id="543872825" type="building.yes" color="255,230,230" fill="1" layer="-1.00" shape="5528.304341,3504.689383 5534.489659,3484.032439 5514.972090,3478.223296 5508.778415,3498.880106 5528.304341,3504.689383"/>
    <poly id="543872826" type="building.yes" color="255,230,230" fill="1" layer="-1.00" shape="5553.423212,3512.852054 5560.030078,3490.714516 5542.921466,3485.647565 5536.314648,3507.785117 5553.423212,3512.852054"/>
    <poly id="543872827" type="building.yes" color="255,230,230" fill="1" layer="-1.00" shape="5494.631974,3458.063043 5500.344215,3437.997375 5524.605993,3446.133663 5517.760720,3463.214215 5494.631974,3458.063043"/>
    <poly id="543872828" type="building.yes" color="255,230,230" fill="1" layer="-1.00" shape="5537.773255,3474.795643 5545.109094,3453.759292 5531.935766,3449.195134 5524.608172,3470.242748 5537.773255,3474.795643"/>
    <poly id="543872829" type="building.yes" color="255,230,230" fill="1" layer="-1.00" shape="5547.859216,3477.983657 5553.603038,3456.141777 5573.127189,3463.006117 5567.383312,3484.847984 5547.859216,3477.983657"/>
    <poly id="543872830" type="building.yes" color="255,230,230" fill="1" layer="-1.00" shape="5507.949630,3432.612763 5514.252995,3412.413200 5536.551731,3419.326543 5530.248309,3439.526088 5507.949630,3432.612763"/>
    <poly id="543872831" type="building.yes" color="255,230,230" fill="1" layer="-1.00" shape="5542.400019,3442.417506 5548.263081,3425.241851 5578.065715,3435.353161 5572.202589,3452.528794 5542.400019,3442.417506"/>
    <poly id="543872832" type="building.yes" color="255,230,230" fill="1" layer="-1.00" shape="5519.811633,3408.158404 5526.561104,3389.365982 5548.297349,3396.702498 5540.270101,3415.461179 5519.811633,3408.158404"/>
    <poly id="543872833" type="building.yes" color="255,230,230" fill="1" layer="-1.00" shape="5548.842640,3416.257026 5559.251544,3418.784467 5563.983771,3399.456633 5553.575037,3396.918085 5548.842640,3416.257026"/>
    <poly id="543872834" type="building.yes" color="255,230,230" fill="1" layer="-1.00" shape="5565.287578,3421.767540 5570.876364,3404.886881 5588.184327,3410.579302 5582.603911,3427.460098 5565.287578,3421.767540"/>
    <poly id="543872835" type="building.yes" color="255,230,230" fill="1" layer="-1.00" shape="5561.241609,3569.059853 5570.865097,3548.963538 5594.099486,3560.002512 5584.475946,3580.098797 5561.241609,3569.059853"/>
    <poly id="543872836" type="building.yes" color="255,230,230" fill="1" layer="-1.00" shape="5589.294262,3582.027563 5598.754191,3561.672970 5622.519532,3572.643705 5613.067955,3592.998418 5589.294262,3582.027563"/>
    <poly id="544620940" type="building.apartments" color="255,230,230" fill="1" layer="-1.00" shape="4697.754280,3339.606897 4698.779892,3335.804818 4701.190846,3326.874388 4713.576286,3330.368194 4710.914657,3339.205371 4709.851493,3342.751373 4705.693690,3341.501117 4697.754280,3339.606897"/>
    <poly id="544620941" type="building.apartments" color="255,230,230" fill="1" layer="-1.00" shape="4716.558356,3261.714077 4717.835799,3256.983611 4719.328900,3251.945998 4727.781467,3254.315674 4731.990544,3255.522423 4730.442292,3260.348068 4729.173249,3265.078680 4716.558356,3261.714077"/>
    <poly id="544620942" type="building.apartments" color="255,230,230" fill="1" layer="-1.00" shape="4717.074862,3250.518229 4732.524700,3254.798890 4736.796996,3240.459768 4721.342638,3236.434435 4720.931264,3236.871398 4717.074862,3250.518229"/>
    <poly id="544620943" type="building.apartments" color="255,230,230" fill="1" layer="-1.00" shape="4731.424050,3207.883160 4734.847288,3197.826733 4743.067842,3200.958586 4740.396179,3210.361933 4731.424050,3207.883160"/>
    <poly id="544620944" type="building.detached" color="255,230,230" fill="1" layer="-1.00" shape="4741.263900,3218.883619 4742.736059,3211.691274 4736.728699,3209.919847 4734.859047,3217.238460 4741.263900,3218.883619"/>
    <poly id="544620945" type="building.apartments" color="255,230,230" fill="1" layer="-1.00" shape="4738.803921,3233.943129 4741.391880,3224.038585 4730.457265,3220.770151 4727.733627,3230.738941 4738.803921,3233.943129"/>
    <poly id="544620946" type="building.apartments" color="255,230,230" fill="1" layer="-1.00" shape="4726.794322,3230.589159 4729.922694,3220.560858 4714.983095,3215.956030 4711.716706,3226.181799 4718.379859,3228.442256 4722.918019,3229.588157 4726.794322,3230.589159"/>
    <poly id="544620947" type="building.apartments" color="255,230,230" fill="1" layer="-1.00" shape="4683.031435,3239.947249 4689.028338,3224.616771 4705.025774,3231.239047 4699.404619,3245.765458 4683.031435,3239.947249"/>
    <poly id="544620948" type="building.apartments" color="255,230,230" fill="1" layer="-1.00" shape="4702.509459,3242.333095 4705.911327,3232.054180 4715.528289,3235.166143 4712.390167,3245.272013 4702.509459,3242.333095"/>
    <poly id="544620949" type="building.apartments" color="255,230,230" fill="1" layer="-1.00" shape="4681.784413,3254.905948 4685.763568,3242.405074 4700.990157,3246.948260 4702.396476,3243.497132 4710.682274,3245.786119 4706.193242,3261.931555 4681.784413,3254.905948"/>
    <poly id="544620950" type="building.detached" color="255,230,230" fill="1" layer="-1.00" shape="4715.436143,3265.747660 4716.386897,3262.377361 4728.943923,3266.162935 4728.081926,3269.268274 4715.436143,3265.747660"/>
    <poly id="544620952" type="building.apartments" color="255,230,230" fill="1" layer="-1.00" shape="4696.365125,3280.392880 4699.685188,3268.069207 4709.921505,3270.392497 4706.481573,3282.836213 4696.365125,3280.392880"/>
    <poly id="544620953" type="building.apartments" color="255,230,230" fill="1" layer="-1.00" shape="4691.792640,3296.026027 4696.304138,3280.991477 4706.511505,3283.525249 4701.625164,3298.353311 4691.792640,3296.026027"/>
    <poly id="544620954" type="landuse.meadow" color="194,194,130" fill="1" layer="-3.00" shape="4716.380178,3326.353085 4731.537112,3273.171380 4715.116932,3269.073542 4698.642299,3322.587462 4716.380178,3326.353085"/>
    <poly id="544620955" type="landuse.construction" color="194,194,130" fill="1" layer="-3.00" shape="4767.035671,3183.823278 4787.490018,3154.632823 4845.517225,3165.826379 4839.723081,3204.969422 4836.856084,3204.441434 4767.035671,3183.823278"/>
    <poly id="544620956" type="building.apartments" color="255,230,230" fill="1" layer="-1.00" shape="4841.459914,3201.857286 4847.026138,3170.883508 4869.430565,3174.254134 4863.114023,3207.235796 4841.459914,3201.857286"/>
    <poly id="544620957" type="building.detached" color="255,230,230" fill="1" layer="-1.00" shape="4885.340762,3180.575433 4887.709944,3168.301716 4898.766587,3170.373193 4896.404426,3182.724767 4885.340762,3180.575433"/>
    <poly id="544620958" type="building.apartments" color="255,230,230" fill="1" layer="-1.00" shape="4786.573274,3146.987562 4791.421397,3135.301589 4802.426524,3139.826215 4798.667247,3149.376976 4797.578385,3151.512181 4786.573274,3146.987562"/>