<configuration>
    <input>
        <net-file value="rize.net.xml"/>
        <route-files value="od_route_file.odtrips.rou.xml"/>
		<additional-files value="osm.poly.xml"/>
    </input>
    <time>
        <begin value="0"/>
        <end value="2000"/>
    </time>
</configuration>