<additional>
	<tazs>
		<taz id="1" edges="307329904#1">
		</taz>
		<taz id="2" edges="220285679">
		</taz>
		<taz id="3" edges="220285678#3">
		</taz>
	</tazs>
</additional>