<?xml version="1.0" encoding="UTF-8"?>

<!-- generated on 2021-10-29 14:08:30 by Eclipse SUMO duarouter Version 1.10.0
<configuration xmlns:xsi="http://www.w3.org/2001/XMLSchema-instance" xsi:noNamespaceSchemaLocation="http://sumo.dlr.de/xsd/duarouterConfiguration.xsd">

    <input>
        <net-file value="C:\Users\ugur.coruh\Sumo\2021-10-29-14-07-48\osm.net.xml"/>
        <route-files value="C:\Users\ugur.coruh\Sumo\2021-10-29-14-07-48\osm.bicycle.trips.xml"/>
    </input>

    <output>
        <output-file value="C:\Users\ugur.coruh\Sumo\2021-10-29-14-07-48\osm.bicycle.trips.xml.tmp"/>
        <write-trips value="true"/>
    </output>

    <time>
        <begin value="0"/>
        <end value="3600"/>
    </time>

    <report>
        <no-warnings value="true"/>
        <ignore-errors value="true"/>
        <no-step-log value="true"/>
    </report>

</configuration>
-->

<routes xmlns:xsi="http://www.w3.org/2001/XMLSchema-instance" xsi:noNamespaceSchemaLocation="http://sumo.dlr.de/xsd/routes_file.xsd">
    <vType id="bike_bicycle" vClass="bicycle"/>
    <trip id="bike0" type="bike_bicycle" depart="0.00" departLane="best" from="220959819#1" to="-220285711#5"/>
    <trip id="bike1" type="bike_bicycle" depart="0.55" departLane="best" from="-732572835" to="-704513870#0"/>
    <trip id="bike2" type="bike_bicycle" depart="1.11" departLane="best" from="545235937" to="546365125"/>
    <trip id="bike3" type="bike_bicycle" depart="1.66" departLane="best" from="732830934#2" to="-220536408#2"/>
    <trip id="bike4" type="bike_bicycle" depart="2.22" departLane="best" departSpeed="max" from="-732932548#1" to="-220285712#8"/>
    <trip id="bike5" type="bike_bicycle" depart="2.77" departLane="best" from="-584545371#1" to="220536327#7"/>
    <trip id="bike6" type="bike_bicycle" depart="3.33" departLane="best" from="-220285712#2" to="-596311694"/>
    <trip id="bike7" type="bike_bicycle" depart="3.88" departLane="best" from="220959833#4" to="220888371#1"/>
    <trip id="bike8" type="bike_bicycle" depart="4.44" departLane="best" from="-610262463" to="220959920#1"/>
    <trip id="bike9" type="bike_bicycle" depart="4.99" departLane="best" departSpeed="max" from="707313619" to="-191453140#2"/>
    <trip id="bike10" type="bike_bicycle" depart="5.55" departLane="best" departSpeed="max" from="707247682#0" to="611415894#2"/>
    <trip id="bike11" type="bike_bicycle" depart="6.10" departLane="best" from="-732597287#1" to="-220959991#0"/>
    <trip id="bike12" type="bike_bicycle" depart="6.66" departLane="best" departSpeed="max" from="755749147#0" to="-732832470"/>
    <trip id="bike13" type="bike_bicycle" depart="7.21" departLane="best" from="-220695226#3" to="-220959807#0"/>
    <trip id="bike14" type="bike_bicycle" depart="7.77" departLane="best" from="732597252#1" to="220959943#1"/>
    <trip id="bike15" type="bike_bicycle" depart="8.32" departLane="best" from="707247684#0" to="704515411#3"/>
    <trip id="bike16" type="bike_bicycle" depart="8.88" departLane="best" departSpeed="max" from="-732830910" to="220959811#7"/>
    <trip id="bike18" type="bike_bicycle" depart="9.99" departLane="best" departSpeed="max" from="732598389" to="220959873"/>
    <trip id="bike19" type="bike_bicycle" depart="10.54" departLane="best" departSpeed="max" from="288807639" to="-220401029#29"/>
    <trip id="bike20" type="bike_bicycle" depart="11.10" departLane="best" from="-688874074#1" to="-732597281#1"/>
    <trip id="bike21" type="bike_bicycle" depart="11.65" departLane="best" from="-220536399#2" to="-704524429#0"/>
    <trip id="bike22" type="bike_bicycle" depart="12.21" departLane="best" from="-220959811#4" to="-732597244#1"/>
    <trip id="bike23" type="bike_bicycle" depart="12.76" departLane="best" from="220959815#0" to="-732958976"/>
    <trip id="bike26" type="bike_bicycle" depart="14.42" departLane="best" departSpeed="max" from="220959832" to="220959954"/>
    <trip id="bike27" type="bike_bicycle" depart="14.98" departLane="best" from="-239342270#2" to="704515411#1"/>
    <trip id="bike28" type="bike_bicycle" depart="15.53" departLane="best" from="-220959979" to="-732987937"/>
    <trip id="bike29" type="bike_bicycle" depart="16.09" departLane="best" from="972222497" to="371878365#1"/>
    <trip id="bike30" type="bike_bicycle" depart="16.64" departLane="best" from="220285724#3" to="610262460"/>
    <trip id="bike32" type="bike_bicycle" depart="17.75" departLane="best" from="-688874077" to="-220285715#1"/>
    <trip id="bike33" type="bike_bicycle" depart="18.31" departLane="best" departSpeed="max" from="-732597245#1" to="-732574218#0"/>
    <trip id="bike34" type="bike_bicycle" depart="18.86" departLane="best" from="-545235942" to="732987944#1"/>
    <trip id="bike35" type="bike_bicycle" depart="19.42" departLane="best" departSpeed="max" from="732598440#0" to="-732624627#0"/>
    <trip id="bike36" type="bike_bicycle" depart="19.97" departLane="best" from="220959856" to="-755750544#0"/>
    <trip id="bike37" type="bike_bicycle" depart="20.53" departLane="best" departSpeed="max" from="732932540" to="220285712#1"/>
    <trip id="bike38" type="bike_bicycle" depart="21.08" departLane="best" departSpeed="max" from="-707247683#1" to="-708205855#0"/>
    <trip id="bike39" type="bike_bicycle" depart="21.64" departLane="best" from="220401029#12" to="-732572868#0"/>
    <trip id="bike40" type="bike_bicycle" depart="22.19" departLane="best" from="220476169#4" to="732932522"/>
    <trip id="bike41" type="bike_bicycle" depart="22.75" departLane="best" departSpeed="max" from="-732830948" to="-704147964#1"/>
    <trip id="bike42" type="bike_bicycle" depart="23.30" departLane="best" from="980722078" to="220536354#15"/>
    <trip id="bike43" type="bike_bicycle" depart="23.86" departLane="best" from="-220536411#5" to="-220401029#4"/>
    <trip id="bike44" type="bike_bicycle" depart="24.41" departLane="best" from="-220959824#2" to="220959991#1"/>
    <trip id="bike45" type="bike_bicycle" depart="24.97" departLane="best" from="704523448#2" to="191446785#3"/>
    <trip id="bike46" type="bike_bicycle" depart="25.52" departLane="best" from="-220536329" to="-732987944#0"/>
    <trip id="bike47" type="bike_bicycle" depart="26.08" departLane="best" from="980720230#1" to="220536399#1"/>
    <trip id="bike48" type="bike_bicycle" depart="26.63" departLane="best" from="859307743#5" to="732830908#2"/>
    <trip id="bike49" type="bike_bicycle" depart="27.19" departLane="best" from="-220285690#1" to="704511328#1"/>
    <trip id="bike50" type="bike_bicycle" depart="27.74" departLane="best" from="220959950#1" to="220536409#1"/>
    <trip id="bike51" type="bike_bicycle" depart="28.29" departLane="best" from="-707247685" to="371878373"/>
    <trip id="bike52" type="bike_bicycle" depart="28.85" departLane="best" from="-220959830#2" to="220285671#1"/>
    <trip id="bike54" type="bike_bicycle" depart="29.96" departLane="best" departSpeed="max" from="732598440#0" to="-732572868#2"/>
    <trip id="bike55" type="bike_bicycle" depart="30.51" departLane="best" departSpeed="max" from="191446767#0" to="-482092794#7"/>
    <trip id="bike56" type="bike_bicycle" depart="31.07" departLane="best" departSpeed="max" from="732932535" to="732830925#1"/>
    <trip id="bike57" type="bike_bicycle" depart="31.62" departLane="best" from="-732574214#3" to="371878363#7"/>
    <trip id="bike58" type="bike_bicycle" depart="32.18" departLane="best" from="220536391#1" to="-220959985#2"/>
    <trip id="bike59" type="bike_bicycle" depart="32.73" departLane="best" from="635392915#2" to="220536410#5"/>
    <trip id="bike60" type="bike_bicycle" depart="33.29" departLane="best" from="704147963#0" to="220536399#6"/>
    <trip id="bike61" type="bike_bicycle" depart="33.84" departLane="best" from="-127482092#2" to="-732830934#1"/>
    <trip id="bike62" type="bike_bicycle" depart="34.40" departLane="best" from="-220285704#0" to="732985481#1"/>
    <trip id="bike63" type="bike_bicycle" depart="34.95" departLane="best" from="732624620" to="732598397"/>
    <trip id="bike64" type="bike_bicycle" depart="35.51" departLane="best" departSpeed="max" from="-732591760" to="-220476159#5"/>
    <trip id="bike66" type="bike_bicycle" depart="36.62" departLane="best" from="-220536408#1" to="220476151#1"/>
    <trip id="bike67" type="bike_bicycle" depart="37.17" departLane="best" departSpeed="max" from="-220536376" to="732572836"/>
    <trip id="bike68" type="bike_bicycle" depart="37.73" departLane="best" from="688874077" to="-220959917#2"/>
    <trip id="bike69" type="bike_bicycle" depart="38.28" departLane="best" from="-755750543" to="220959811#0"/>
    <trip id="bike70" type="bike_bicycle" depart="38.84" departLane="best" from="-707247684#0" to="732830928#1"/>
    <trip id="bike71" type="bike_bicycle" depart="39.39" departLane="best" from="-732932550#1" to="-704147950#6"/>
    <trip id="bike72" type="bike_bicycle" depart="39.95" departLane="best" from="220285705" to="704515411#3"/>
    <trip id="bike74" type="bike_bicycle" depart="41.06" departLane="best" from="980720227" to="482092794#18"/>
    <trip id="bike75" type="bike_bicycle" depart="41.61" departLane="best" from="-732958969#3" to="220536371"/>
    <trip id="bike76" type="bike_bicycle" depart="42.16" departLane="best" from="-220959861" to="-704513870#5"/>
    <trip id="bike77" type="bike_bicycle" depart="42.72" departLane="best" from="-732597284#0" to="220959919#1"/>
    <trip id="bike78" type="bike_bicycle" depart="43.27" departLane="best" from="-704147950#1" to="-704511329#1"/>
    <trip id="bike79" type="bike_bicycle" depart="43.83" departLane="best" from="-220536381#1" to="247789317#2"/>
    <trip id="bike80" type="bike_bicycle" depart="44.38" departLane="best" from="-688874077" to="732932544"/>
    <trip id="bike81" type="bike_bicycle" depart="44.94" departLane="best" departSpeed="max" from="732597291#0" to="-220536381#0"/>
    <trip id="bike82" type="bike_bicycle" depart="45.49" departLane="best" departSpeed="max" from="-545736284" to="-220959920#3"/>
    <trip id="bike83" type="bike_bicycle" depart="46.05" departLane="best" from="732985487#1" to="220959842"/>
    <trip id="bike84" type="bike_bicycle" depart="46.60" departLane="best" departSpeed="max" from="-755749416" to="732574219"/>
    <trip id="bike85" type="bike_bicycle" depart="47.16" departLane="best" from="707247684#1" to="-545235922#0"/>
    <trip id="bike86" type="bike_bicycle" depart="47.71" departLane="best" from="-220959807#1" to="191453178#1"/>
    <trip id="bike87" type="bike_bicycle" depart="48.27" departLane="best" departSpeed="max" from="-732932550#2" to="220285719#2"/>
    <trip id="bike88" type="bike_bicycle" depart="48.82" departLane="best" from="544621007" to="545448785"/>
    <trip id="bike89" type="bike_bicycle" depart="49.38" departLane="best" from="967234359" to="-220959810#1"/>
    <trip id="bike90" type="bike_bicycle" depart="49.93" departLane="best" from="-732830958#0" to="-732932520"/>
    <trip id="bike91" type="bike_bicycle" depart="50.49" departLane="best" departSpeed="max" from="732598389" to="-732572825#0"/>
    <trip id="bike92" type="bike_bicycle" depart="51.04" departLane="best" departSpeed="max" from="-482092794#20" to="220285693#1"/>
    <trip id="bike93" type="bike_bicycle" depart="51.60" departLane="best" from="-704515411#2" to="732958971"/>
    <trip id="bike94" type="bike_bicycle" depart="52.15" departLane="best" departSpeed="max" from="-732958981" to="732830909#1"/>
    <trip id="bike95" type="bike_bicycle" depart="52.71" departLane="best" from="220285715#1" to="-220476151#2"/>
    <trip id="bike96" type="bike_bicycle" depart="53.26" departLane="best" from="980722879#1" to="732598415#1"/>
    <trip id="bike98" type="bike_bicycle" depart="54.37" departLane="best" from="-778936907#6" to="-704147958#0"/>
    <trip id="bike99" type="bike_bicycle" depart="54.93" departLane="best" from="-732830951#0" to="-220476160"/>
    <trip id="bike100" type="bike_bicycle" depart="55.48" departLane="best" from="-732830911" to="967234360#2"/>
    <trip id="bike101" type="bike_bicycle" depart="56.03" departLane="best" from="-707247684#0" to="732574217"/>
    <trip id="bike102" type="bike_bicycle" depart="56.59" departLane="best" departSpeed="max" from="-732987934#1" to="191446788"/>
    <trip id="bike103" type="bike_bicycle" depart="57.14" departLane="best" departSpeed="max" from="755749147#0" to="980720226#1"/>
    <trip id="bike104" type="bike_bicycle" depart="57.70" departLane="best" from="220285724#0" to="704147963#1"/>
    <trip id="bike105" type="bike_bicycle" depart="58.25" departLane="best" departSpeed="max" from="859307739" to="220959876#0"/>
    <trip id="bike106" type="bike_bicycle" depart="58.81" departLane="best" from="220285711#2" to="707247684#2"/>
    <trip id="bike107" type="bike_bicycle" depart="59.36" departLane="best" from="-220476165" to="220959915#3"/>
    <trip id="bike109" type="bike_bicycle" depart="60.47" departLane="best" from="-220959966#1" to="755752101#1"/>
    <trip id="bike110" type="bike_bicycle" depart="61.03" departLane="best" from="-220536399#3" to="-544621021"/>
    <trip id="bike111" type="bike_bicycle" depart="61.58" departLane="best" from="220536354#12" to="545736283#1"/>
    <trip id="bike112" type="bike_bicycle" depart="62.14" departLane="best" from="-704147961#1" to="-220959869"/>
    <trip id="bike113" type="bike_bicycle" depart="62.69" departLane="best" departSpeed="max" from="732830929#0" to="-708204878"/>
    <trip id="bike114" type="bike_bicycle" depart="63.25" departLane="best" from="220536354#11" to="220959974#0"/>
    <trip id="bike115" type="bike_bicycle" depart="63.80" departLane="best" departSpeed="max" from="-732932542" to="220959915#2"/>
    <trip id="bike117" type="bike_bicycle" depart="64.91" departLane="best" from="-544779586#0" to="704147961#8"/>
    <trip id="bike118" type="bike_bicycle" depart="65.47" departLane="best" from="-704147962#0" to="-755752096#0"/>
    <trip id="bike119" type="bike_bicycle" depart="66.02" departLane="best" from="220959921#1" to="-732598402#1"/>
    <trip id="bike120" type="bike_bicycle" depart="66.58" departLane="best" from="-220536383#1" to="220285711#7"/>
    <trip id="bike121" type="bike_bicycle" depart="67.13" departLane="best" from="980722084" to="980720228"/>
    <trip id="bike122" type="bike_bicycle" depart="67.69" departLane="best" from="-220536384#0" to="-704147954#0"/>
    <trip id="bike123" type="bike_bicycle" depart="68.24" departLane="best" from="-707247684#0" to="732985493"/>
    <trip id="bike124" type="bike_bicycle" depart="68.80" departLane="best" departSpeed="max" from="732624627#0" to="732830938#1"/>
    <trip id="bike126" type="bike_bicycle" depart="69.90" departLane="best" departSpeed="max" from="732574218#0" to="688874074#1"/>
    <trip id="bike127" type="bike_bicycle" depart="70.46" departLane="best" departSpeed="max" from="220536397#0" to="967234361#0"/>
    <trip id="bike128" type="bike_bicycle" depart="71.01" departLane="best" from="220959847" to="-191453167#3"/>
    <trip id="bike129" type="bike_bicycle" depart="71.57" departLane="best" from="732572832#0" to="-732598402#0"/>
    <trip id="bike131" type="bike_bicycle" depart="72.68" departLane="best" from="-220959919#2" to="-220959838#2"/>
    <trip id="bike132" type="bike_bicycle" depart="73.23" departLane="best" departSpeed="max" from="-220959817" to="220959815#0"/>
    <trip id="bike133" type="bike_bicycle" depart="73.79" departLane="best" from="-732572828" to="220959947#1"/>
    <trip id="bike134" type="bike_bicycle" depart="74.34" departLane="best" from="482088687#1" to="-611415893#5"/>
    <trip id="bike135" type="bike_bicycle" depart="74.90" departLane="best" from="220959811#5" to="-732574212#0"/>
    <trip id="bike136" type="bike_bicycle" depart="75.45" departLane="best" from="-94800093#14" to="732932544"/>
    <trip id="bike137" type="bike_bicycle" depart="76.01" departLane="best" departSpeed="max" from="732597250" to="-220695226#2"/>
    <trip id="bike139" type="bike_bicycle" depart="77.12" departLane="best" from="-191453131#4" to="732572858#1"/>
    <trip id="bike140" type="bike_bicycle" depart="77.67" departLane="best" from="220959815#5" to="-732572866#1"/>
    <trip id="bike141" type="bike_bicycle" depart="78.23" departLane="best" from="546367935#1" to="220959811#6"/>
    <trip id="bike142" type="bike_bicycle" depart="78.78" departLane="best" departSpeed="max" from="-732932564#5" to="-220285671#0"/>
    <trip id="bike143" type="bike_bicycle" depart="79.34" departLane="best" from="-220536391#0" to="732830945"/>
    <trip id="bike144" type="bike_bicycle" depart="79.89" departLane="best" departSpeed="max" from="732832469" to="220888371#3"/>
    <trip id="bike146" type="bike_bicycle" depart="81.00" departLane="best" departSpeed="max" from="-220959943#1" to="-220959916#1"/>
    <trip id="bike148" type="bike_bicycle" depart="82.11" departLane="best" from="704525159" to="732830908#2"/>
    <trip id="bike149" type="bike_bicycle" depart="82.67" departLane="best" from="732830952" to="-704147950#0"/>
    <trip id="bike150" type="bike_bicycle" depart="83.22" departLane="best" from="-704515411#2" to="-220959815#5"/>
    <trip id="bike151" type="bike_bicycle" depart="83.77" departLane="best" from="704511328#0" to="732830946#2"/>
    <trip id="bike152" type="bike_bicycle" depart="84.33" departLane="best" departSpeed="max" from="-732832471" to="220959975"/>
    <trip id="bike153" type="bike_bicycle" depart="84.88" departLane="best" departSpeed="max" from="-220959957#1" to="732985484"/>
    <trip id="bike154" type="bike_bicycle" depart="85.44" departLane="best" from="732598396#1" to="94800093#11"/>
    <trip id="bike155" type="bike_bicycle" depart="85.99" departLane="best" from="707313622#2" to="732830939#2"/>
    <trip id="bike156" type="bike_bicycle" depart="86.55" departLane="best" from="-220285712#0" to="704524429#1"/>
    <trip id="bike157" type="bike_bicycle" depart="87.10" departLane="best" from="-732597273#1" to="732985486#1"/>
    <trip id="bike158" type="bike_bicycle" depart="87.66" departLane="best" from="707235527#5" to="732830913#1"/>
    <trip id="bike159" type="bike_bicycle" depart="88.21" departLane="best" from="707313622#2" to="-732574215"/>
    <trip id="bike160" type="bike_bicycle" depart="88.77" departLane="best" from="704513874" to="-220959830#1"/>
    <trip id="bike161" type="bike_bicycle" depart="89.32" departLane="best" from="732598427#1" to="732624627#1"/>
    <trip id="bike162" type="bike_bicycle" depart="89.88" departLane="best" from="-611415893#1" to="732597274"/>
    <trip id="bike163" type="bike_bicycle" depart="90.43" departLane="best" from="704524429#1" to="-704515411#2"/>
    <trip id="bike164" type="bike_bicycle" depart="90.99" departLane="best" from="-220285711#5" to="-545235943"/>
    <trip id="bike165" type="bike_bicycle" depart="91.54" departLane="best" departSpeed="max" from="-732597267" to="732830914"/>
    <trip id="bike166" type="bike_bicycle" depart="92.10" departLane="best" from="778936907#7" to="-732597244#5"/>
    <trip id="bike167" type="bike_bicycle" depart="92.65" departLane="best" from="220959823#3" to="-778936907#11"/>
    <trip id="bike168" type="bike_bicycle" depart="93.21" departLane="best" from="953809141#1" to="220536408#4"/>
    <trip id="bike169" type="bike_bicycle" depart="93.76" departLane="best" departSpeed="max" from="732985496" to="-220959838#2"/>
    <trip id="bike170" type="bike_bicycle" depart="94.32" departLane="best" from="859307743#3" to="-482092794#7"/>
    <trip id="bike171" type="bike_bicycle" depart="94.87" departLane="best" from="755752096#2" to="-732574214#0"/>
    <trip id="bike172" type="bike_bicycle" depart="95.43" departLane="best" from="-220959819#3" to="220285671#0"/>
    <trip id="bike173" type="bike_bicycle" depart="95.98" departLane="best" from="544621006" to="-732624625#2"/>
    <trip id="bike174" type="bike_bicycle" depart="96.54" departLane="best" from="220536383#1" to="220536354#2"/>
    <trip id="bike175" type="bike_bicycle" depart="97.09" departLane="best" departSpeed="max" from="-732830923" to="220959868"/>
    <trip id="bike176" type="bike_bicycle" depart="97.64" departLane="best" from="-704524428#1" to="704147950#5"/>
    <trip id="bike177" type="bike_bicycle" depart="98.20" departLane="best" from="-191446779" to="732958979"/>
    <trip id="bike178" type="bike_bicycle" depart="98.75" departLane="best" from="220285704#1" to="704147964#1"/>
    <trip id="bike179" type="bike_bicycle" depart="99.31" departLane="best" from="546905269" to="545235932"/>
    <trip id="bike180" type="bike_bicycle" depart="99.86" departLane="best" departSpeed="max" from="-732598433#1" to="-220536377#2"/>
    <trip id="bike181" type="bike_bicycle" depart="100.42" departLane="best" departSpeed="max" from="220959914" to="-732830950#0"/>
    <trip id="bike182" type="bike_bicycle" depart="100.97" departLane="best" from="-732597244#1" to="732598435"/>
    <trip id="bike183" type="bike_bicycle" depart="101.53" departLane="best" from="482092794#15" to="-732598403"/>
    <trip id="bike185" type="bike_bicycle" depart="102.64" departLane="best" from="-732830958#0" to="-732598389"/>
    <trip id="bike186" type="bike_bicycle" depart="103.19" departLane="best" departSpeed="max" from="-220959910" to="191446784#2"/>
    <trip id="bike188" type="bike_bicycle" depart="104.30" departLane="best" departSpeed="max" from="732832464" to="220959967#3"/>
    <trip id="bike189" type="bike_bicycle" depart="104.86" departLane="best" from="-732574218#1" to="220959808"/>
    <trip id="bike190" type="bike_bicycle" depart="105.41" departLane="best" from="-127482092#2" to="-732597273#0"/>
    <trip id="bike191" type="bike_bicycle" depart="105.97" departLane="best" departSpeed="max" from="-732958953" to="220959888#0"/>
    <trip id="bike192" type="bike_bicycle" depart="106.52" departLane="best" from="220959854#1" to="220285717#0"/>
    <trip id="bike193" type="bike_bicycle" depart="107.08" departLane="best" departSpeed="max" from="-732958979" to="-704147958#0"/>
    <trip id="bike194" type="bike_bicycle" depart="107.63" departLane="best" from="-755750538#0" to="732932536"/>
    <trip id="bike195" type="bike_bicycle" depart="108.19" departLane="best" from="704524430#1" to="-371878381#0"/>
    <trip id="bike196" type="bike_bicycle" depart="108.74" departLane="best" from="-220536407#3" to="220536357#5"/>
    <trip id="bike197" type="bike_bicycle" depart="109.30" departLane="best" from="220959811#1" to="-732832465"/>
    <trip id="bike198" type="bike_bicycle" depart="109.85" departLane="best" departSpeed="max" from="732572834" to="707313625#2"/>
    <trip id="bike199" type="bike_bicycle" depart="110.41" departLane="best" from="220959927#0" to="-704513870#5"/>
    <trip id="bike200" type="bike_bicycle" depart="110.96" departLane="best" departSpeed="max" from="-544620987#2" to="-220285711#3"/>
    <trip id="bike201" type="bike_bicycle" depart="111.51" departLane="best" from="-704513870#0" to="220401029#12"/>
    <trip id="bike202" type="bike_bicycle" depart="112.07" departLane="best" from="732597264#0" to="-220536383#1"/>
    <trip id="bike203" type="bike_bicycle" depart="112.62" departLane="best" departSpeed="max" from="-732932529" to="239342270#0"/>
    <trip id="bike204" type="bike_bicycle" depart="113.18" departLane="best" from="-544620960#4" to="611415893#3"/>
    <trip id="bike205" type="bike_bicycle" depart="113.73" departLane="best" from="-967234359" to="-707247684#4"/>
    <trip id="bike206" type="bike_bicycle" depart="114.29" departLane="best" from="220959859#0" to="-191453131#4"/>
    <trip id="bike207" type="bike_bicycle" depart="114.84" departLane="best" from="611398276#3" to="732572855#2"/>
    <trip id="bike208" type="bike_bicycle" depart="115.40" departLane="best" departSpeed="max" from="-220959817" to="191453140#2"/>
    <trip id="bike209" type="bike_bicycle" depart="115.95" departLane="best" from="-307329900#1" to="755752095"/>
    <trip id="bike210" type="bike_bicycle" depart="116.51" departLane="best" from="191453179#0" to="-220476151#1"/>
    <trip id="bike211" type="bike_bicycle" depart="117.06" departLane="best" from="-704515411#1" to="732598435"/>
    <trip id="bike212" type="bike_bicycle" depart="117.62" departLane="best" from="220959917#4" to="967234362"/>
    <trip id="bike213" type="bike_bicycle" depart="118.17" departLane="best" from="220536354#14" to="755748205"/>
    <trip id="bike214" type="bike_bicycle" depart="118.73" departLane="best" departSpeed="max" from="732830934#0" to="220959960"/>
    <trip id="bike215" type="bike_bicycle" depart="119.28" departLane="best" from="482092794#13" to="220536327#5"/>
    <trip id="bike216" type="bike_bicycle" depart="119.84" departLane="best" departSpeed="max" from="732574213" to="220959808"/>
    <trip id="bike217" type="bike_bicycle" depart="120.39" departLane="best" from="732830946#1" to="707235527#8"/>
    <trip id="bike218" type="bike_bicycle" depart="120.95" departLane="best" from="-755750542#0" to="-732572858#2"/>
    <trip id="bike219" type="bike_bicycle" depart="121.50" departLane="best" from="-704513873" to="371878363#3"/>
    <trip id="bike220" type="bike_bicycle" depart="122.06" departLane="best" from="688874077" to="220536382#2"/>
    <trip id="bike221" type="bike_bicycle" depart="122.61" departLane="best" from="220695226#3" to="-732591763"/>
    <trip id="bike222" type="bike_bicycle" depart="123.17" departLane="best" from="-220536394#1" to="-732597269#1"/>
    <trip id="bike223" type="bike_bicycle" depart="123.72" departLane="best" departSpeed="max" from="-732572825#1" to="-732830915#0"/>
    <trip id="bike224" type="bike_bicycle" depart="124.28" departLane="best" from="220285707#2" to="-220959939#3"/>
    <trip id="bike225" type="bike_bicycle" depart="124.83" departLane="best" from="-704147950#6" to="611415890#2"/>
    <trip id="bike226" type="bike_bicycle" depart="125.38" departLane="best" from="307329896" to="-220536326#2"/>
    <trip id="bike227" type="bike_bicycle" depart="125.94" departLane="best" departSpeed="max" from="-732832475" to="220695226#3"/>
    <trip id="bike228" type="bike_bicycle" depart="126.49" departLane="best" from="-732932534" to="-688874074#0"/>
    <trip id="bike229" type="bike_bicycle" depart="127.05" departLane="best" departSpeed="max" from="-732932544" to="732932543"/>
    <trip id="bike230" type="bike_bicycle" depart="127.60" departLane="best" from="220476169#3" to="611415893#0"/>
    <trip id="bike231" type="bike_bicycle" depart="128.16" departLane="best" departSpeed="max" from="732597283" to="732572844"/>
    <trip id="bike232" type="bike_bicycle" depart="128.71" departLane="best" departSpeed="max" from="-732830914" to="-191453140#0"/>
    <trip id="bike233" type="bike_bicycle" depart="129.27" departLane="best" departSpeed="max" from="-732598413" to="708204876#2"/>
    <trip id="bike234" type="bike_bicycle" depart="129.82" departLane="best" from="732597276#0" to="755749145#1"/>
    <trip id="bike235" type="bike_bicycle" depart="130.38" departLane="best" departSpeed="max" from="-732932542" to="707247684#1"/>
    <trip id="bike236" type="bike_bicycle" depart="130.93" departLane="best" from="220285712#3" to="220959943#0"/>
    <trip id="bike237" type="bike_bicycle" depart="131.49" departLane="best" from="-610262463" to="-704147964#1"/>
    <trip id="bike238" type="bike_bicycle" depart="132.04" departLane="best" departSpeed="max" from="-732958966" to="-220285712#6"/>
    <trip id="bike239" type="bike_bicycle" depart="132.60" departLane="best" from="-732597279" to="546905269"/>
    <trip id="bike240" type="bike_bicycle" depart="133.15" departLane="best" departSpeed="max" from="-732832466" to="-371878363#2"/>
    <trip id="bike241" type="bike_bicycle" depart="133.71" departLane="best" departSpeed="max" from="-755748205" to="-220959916#2"/>
    <trip id="bike242" type="bike_bicycle" depart="134.26" departLane="best" from="220536410#0" to="-220285712#12"/>
    <trip id="bike243" type="bike_bicycle" depart="134.82" departLane="best" from="-732830938#0" to="220959830#5"/>
    <trip id="bike244" type="bike_bicycle" depart="135.37" departLane="best" from="-220285712#4" to="371878381#1"/>
    <trip id="bike245" type="bike_bicycle" depart="135.93" departLane="best" from="-220959920#3" to="220285712#7"/>
    <trip id="bike246" type="bike_bicycle" depart="136.48" departLane="best" from="-220476153#0" to="-732987936"/>
    <trip id="bike247" type="bike_bicycle" depart="137.04" departLane="best" from="-545448779#1" to="-732830939#1"/>
    <trip id="bike248" type="bike_bicycle" depart="137.59" departLane="best" from="612003763#1" to="-732987936"/>
    <trip id="bike249" type="bike_bicycle" depart="138.15" departLane="best" from="611398276#6" to="732598398"/>
    <trip id="bike250" type="bike_bicycle" depart="138.70" departLane="best" departSpeed="max" from="-704521313#4" to="-220536399#7"/>
    <trip id="bike251" type="bike_bicycle" depart="139.25" departLane="best" from="-220285704#0" to="220536410#5"/>
    <trip id="bike252" type="bike_bicycle" depart="139.81" departLane="best" from="980722880#1" to="-732932550#0"/>
    <trip id="bike253" type="bike_bicycle" depart="140.36" departLane="best" from="220959833#4" to="732574214#1"/>
    <trip id="bike254" type="bike_bicycle" depart="140.92" departLane="best" from="220959837" to="708205855#0"/>
    <trip id="bike255" type="bike_bicycle" depart="141.47" departLane="best" departSpeed="max" from="755418966" to="-610262460"/>
    <trip id="bike256" type="bike_bicycle" depart="142.03" departLane="best" from="-220285707#0" to="-220959985#1"/>
    <trip id="bike257" type="bike_bicycle" depart="142.58" departLane="best" from="220401029#23" to="-704147961#8"/>
    <trip id="bike258" type="bike_bicycle" depart="143.14" departLane="best" from="220959991#0" to="732572848"/>
    <trip id="bike259" type="bike_bicycle" depart="143.69" departLane="best" from="-220959991#2" to="220959951#1"/>