<?xml version="1.0" encoding="UTF-8"?>

<!-- generated on 2021-11-22 10:58:57 by Eclipse SUMO netedit Version 1.10.0
<configuration xmlns:xsi="http://www.w3.org/2001/XMLSchema-instance" xsi:noNamespaceSchemaLocation="http://sumo.dlr.de/xsd/netconvertConfiguration.xsd">

    <output>
        <output-file value="C:\Users\ugur.coruh\Desktop\arcview\netedit-sample\helloworld.net.xml"/>
    </output>

    <processing>
        <offset.disable-normalization value="true"/>
    </processing>

    <junctions>
        <no-turnarounds value="true"/>
    </junctions>

    <netedit>
        <route-files value="C:\Users\ugur.coruh\Desktop\arcview\netedit-sample\helloworld.rou.xml"/>
    </netedit>

    <report>
        <aggregate-warnings value="5"/>
    </report>

</configuration>
-->

<net version="1.9" junctionCornerDetail="5" limitTurnSpeed="5.50" xmlns:xsi="http://www.w3.org/2001/XMLSchema-instance" xsi:noNamespaceSchemaLocation="http://sumo.dlr.de/xsd/net_file.xsd">

    <location netOffset="0.00,0.00" convBoundary="-57.07,-12.10,97.94,95.33" origBoundary="10000000000.00,10000000000.00,-10000000000.00,-10000000000.00" projParameter="!"/>

    <type id="edgeType_0"/>

    <edge id=":gneJ10_0" function="internal">
        <lane id=":gneJ10_0_0" index="0" speed="3.92" length="2.36" shape="-3.66,53.96 -4.25,53.71 -4.64,53.33 -4.83,52.82 -4.82,52.18"/>
    </edge>
    <edge id=":gneJ11_0" function="internal">
        <lane id=":gneJ11_0_0" index="0" speed="7.58" length="6.87" shape="-3.61,43.94 -3.63,42.47 -4.11,40.98 -5.06,39.49 -6.47,37.98"/>
    </edge>
    <edge id=":gneJ11_1" function="internal">
        <lane id=":gneJ11_1_0" index="0" speed="10.32" length="6.85" shape="-3.61,43.94 -3.35,41.92 -3.06,40.51 -2.43,39.27 -1.13,37.77"/>
    </edge>
    <edge id=":gneJ12_0" function="internal">
        <lane id=":gneJ12_0_0" index="0" speed="6.91" length="10.02" shape="12.39,18.72 13.16,21.42 14.57,23.25 16.59,24.22 19.25,24.33"/>
    </edge>
    <edge id=":gneJ12_1" function="internal">
        <lane id=":gneJ12_1_0" index="0" speed="13.89" length="12.54" shape="12.39,18.72 12.93,22.06 13.64,24.89 14.75,27.56 16.51,30.41"/>
    </edge>
    <edge id=":gneJ12_2" function="internal">
        <lane id=":gneJ12_2_0" index="0" speed="12.75" length="12.17" shape="8.11,28.36 10.63,26.31 13.13,25.21 15.90,24.69 19.25,24.33"/>
    </edge>
    <edge id=":gneJ12_3" function="internal">
        <lane id=":gneJ12_3_0" index="0" speed="6.50" length="5.27" shape="8.11,28.36 10.15,26.95 12.23,26.82 12.85,27.15"/>
    </edge>
    <edge id=":gneJ12_4" function="internal">
        <lane id=":gneJ12_4_0" index="0" speed="6.50" length="4.96" shape="12.85,27.15 14.35,27.97 16.51,30.41"/>
    </edge>
    <edge id=":gneJ13_0" function="internal">
        <lane id=":gneJ13_0_0" index="0" speed="13.89" length="18.53" shape="47.51,21.22 51.80,20.91 56.76,20.79 61.72,20.84 66.02,21.03"/>
    </edge>
    <edge id=":gneJ13_1" function="internal">
        <lane id=":gneJ13_1_0" index="0" speed="13.89" length="17.70" shape="47.51,21.22 51.66,21.31 56.24,22.25 60.66,23.82 64.32,25.82"/>
    </edge>
    <edge id=":gneJ13_2" function="internal">
        <lane id=":gneJ13_2_0" index="0" speed="11.71" length="4.59" shape="50.35,26.35 53.13,23.73 53.83,23.39"/>
    </edge>
    <edge id=":gneJ13_3" function="internal">
        <lane id=":gneJ13_3_0" index="0" speed="8.57" length="5.02" shape="50.35,26.35 53.18,23.83 54.37,23.50"/>
    </edge>
    <edge id=":gneJ13_4" function="internal">
        <lane id=":gneJ13_4_0" index="0" speed="11.71" length="12.62" shape="53.83,23.39 56.67,21.97 60.97,21.07 66.02,21.03"/>
    </edge>
    <edge id=":gneJ13_5" function="internal">
        <lane id=":gneJ13_5_0" index="0" speed="8.57" length="10.66" shape="54.37,23.50 56.45,22.91 60.17,23.57 64.32,25.82"/>
    </edge>
    <edge id=":gneJ14_0" function="internal">
        <lane id=":gneJ14_0_0" index="0" speed="3.96" length="1.99" shape="90.28,22.79 90.79,22.89 91.20,23.12 91.51,23.48 91.71,23.97"/>
    </edge>
    <edge id=":gneJ15_0" function="internal">
        <lane id=":gneJ15_0_0" index="0" speed="13.89" length="18.22" shape="96.45,41.58 97.38,45.72 98.18,50.51 98.76,55.34 99.02,59.58"/>
    </edge>
    <edge id=":gneJ15_1" function="internal">
        <lane id=":gneJ15_1_0" index="0" speed="11.93" length="17.04" shape="96.45,41.58 97.22,46.13 97.00,50.33 95.79,54.20 93.58,57.73"/>
    </edge>
    <edge id=":gneJ15_2" function="internal">
        <lane id=":gneJ15_2_0" index="0" speed="11.92" length="5.31" shape="91.74,44.88 94.85,47.65 95.49,48.60"/>
    </edge>
    <edge id=":gneJ15_3" function="internal">
        <lane id=":gneJ15_3_0" index="0" speed="8.02" length="5.86" shape="91.74,44.88 94.79,47.72 95.45,49.28"/>
    </edge>
    <edge id=":gneJ15_4" function="internal">
        <lane id=":gneJ15_4_0" index="0" speed="11.92" length="11.73" shape="95.49,48.60 97.10,51.02 98.49,54.99 99.02,59.58"/>
    </edge>
    <edge id=":gneJ15_5" function="internal">
        <lane id=":gneJ15_5_0" index="0" speed="8.02" length="9.19" shape="95.45,49.28 96.11,50.81 95.71,54.14 93.58,57.73"/>
    </edge>
    <edge id=":gneJ16_0" function="internal">
        <lane id=":gneJ16_0_0" index="0" speed="3.94" length="2.13" shape="99.54,83.71 99.48,84.27 99.26,84.72 98.89,85.06 98.37,85.29"/>
    </edge>
    <edge id=":gneJ17_0" function="internal">
        <lane id=":gneJ17_0_0" index="0" speed="13.89" length="19.04" shape="72.09,92.71 67.82,93.66 62.73,94.39 57.60,94.83 53.22,94.86"/>
    </edge>
    <edge id=":gneJ17_1" function="internal">
        <lane id=":gneJ17_1_0" index="0" speed="11.74" length="17.77" shape="72.09,92.71 67.29,93.58 62.90,93.35 58.92,92.04 55.35,89.64"/>
    </edge>
    <edge id=":gneJ17_2" function="internal">
        <lane id=":gneJ17_2_0" index="0" speed="12.17" length="5.61" shape="69.07,88.14 65.89,91.28 64.91,91.85"/>
    </edge>
    <edge id=":gneJ17_3" function="internal">
        <lane id=":gneJ17_3_0" index="0" speed="8.32" length="6.21" shape="69.07,88.14 65.82,91.20 64.19,91.82"/>
    </edge>
    <edge id=":gneJ17_4" function="internal">
        <lane id=":gneJ17_4_0" index="0" speed="12.17" length="12.29" shape="64.91,91.85 62.18,93.45 57.96,94.64 53.22,94.86"/>
    </edge>
    <edge id=":gneJ17_5" function="internal">
        <lane id=":gneJ17_5_0" index="0" speed="8.32" length="9.68" shape="64.19,91.82 62.45,92.47 58.96,91.95 55.35,89.64"/>
    </edge>
    <edge id=":gneJ18_0" function="internal">
        <lane id=":gneJ18_0_0" index="0" speed="13.89" length="11.44" shape="30.51,93.64 27.32,93.50 24.80,93.50 22.28,93.61 19.09,93.85"/>
    </edge>
    <edge id=":gneJ18_1" function="internal">
        <lane id=":gneJ18_1_0" index="0" speed="13.78" length="11.17" shape="30.51,93.64 27.36,93.37 25.00,92.83 22.82,91.77 20.23,89.96"/>
    </edge>
    <edge id=":gneJ18_2" function="internal">
        <lane id=":gneJ18_2_0" index="0" speed="10.23" length="2.68" shape="28.72,89.80 27.14,91.36 26.74,91.59"/>
    </edge>
    <edge id=":gneJ18_3" function="internal">
        <lane id=":gneJ18_3_0" index="0" speed="6.69" length="2.86" shape="28.72,89.80 27.01,91.39 26.49,91.53"/>
    </edge>
    <edge id=":gneJ18_4" function="internal">
        <lane id=":gneJ18_4_0" index="0" speed="10.23" length="8.06" shape="26.74,91.59 25.01,92.56 22.33,93.39 19.09,93.85"/>
    </edge>
    <edge id=":gneJ18_5" function="internal">
        <lane id=":gneJ18_5_0" index="0" speed="6.69" length="6.79" shape="26.49,91.53 25.03,91.94 22.77,91.46 20.23,89.96"/>
    </edge>
    <edge id=":gneJ19_0" function="internal">
        <lane id=":gneJ19_0_0" index="0" speed="3.90" length="2.64" shape="-17.60,96.77 -18.32,96.72 -18.85,96.45 -19.19,95.96 -19.32,95.25"/>
    </edge>
    <edge id=":gneJ20_0" function="internal">
        <lane id=":gneJ20_0_0" index="0" speed="4.30" length="5.78" shape="2.11,95.54 1.69,97.42 1.05,98.14 0.20,97.70 -0.88,96.10"/>
    </edge>
    <edge id=":gneJ21_0" function="internal">
        <lane id=":gneJ21_0_0" index="0" speed="7.57" length="17.18" shape="-51.85,2.24 -54.88,-4.11 -56.10,-8.67 -55.51,-11.44 -53.11,-12.41"/>
    </edge>
    <edge id=":gneJ21_1" function="internal">
        <lane id=":gneJ21_1_0" index="0" speed="6.93" length="7.91" shape="-48.33,-0.51 -53.41,-5.65 -53.79,-6.22"/>
    </edge>
    <edge id=":gneJ21_2" function="internal">
        <lane id=":gneJ21_2_0" index="0" speed="6.93" length="8.84" shape="-53.79,-6.22 -55.90,-9.35 -55.80,-11.60 -53.11,-12.41"/>
    </edge>
    <edge id=":gneJ22_0" function="internal">
        <lane id=":gneJ22_0_0" index="0" speed="3.92" length="2.35" shape="6.18,-13.70 6.81,-13.63 7.29,-13.38 7.62,-12.94 7.80,-12.34"/>
    </edge>
    <edge id=":gneJ3_0" function="internal">
        <lane id=":gneJ3_0_0" index="0" speed="3.90" length="2.84" shape="-20.38,73.22 -20.31,72.43 -20.00,71.89 -19.44,71.60 -18.65,71.55"/>
    </edge>
    <edge id=":gneJ4_0" function="internal">
        <lane id=":gneJ4_0_0" index="0" speed="5.67" length="9.24" shape="9.75,82.04 7.34,80.68 5.49,80.66 4.21,82.00 3.50,84.67"/>
    </edge>
    <edge id=":gneJ4_1" function="internal">
        <lane id=":gneJ4_1_0" index="0" speed="8.75" length="9.06" shape="9.75,82.04 6.24,78.63 4.53,75.08 4.53,74.87"/>
    </edge>
    <edge id=":gneJ4_2" function="internal">
        <lane id=":gneJ4_2_0" index="0" speed="5.49" length="7.80" shape="9.75,82.04 8.30,79.91 7.66,76.96 7.95,74.78"/>
    </edge>
    <edge id=":gneJ4_6" function="internal">
        <lane id=":gneJ4_6_0" index="0" speed="8.75" length="7.79" shape="4.53,74.87 4.62,71.37 6.53,67.53"/>
    </edge>
    <edge id=":gneJ4_7" function="internal">
        <lane id=":gneJ4_7_0" index="0" speed="5.49" length="2.44" shape="7.95,74.78 8.01,74.32 9.57,73.11"/>
    </edge>
    <edge id=":gneJ4_3" function="internal">
        <lane id=":gneJ4_3_0" index="0" speed="9.11" length="11.04" shape="-2.54,72.94 -0.14,72.76 2.17,71.79 4.39,70.05 6.53,67.53"/>
    </edge>
    <edge id=":gneJ4_4" function="internal">
        <lane id=":gneJ4_4_0" index="0" speed="13.89" length="12.13" shape="-2.54,72.94 0.75,73.18 3.51,73.28 6.27,73.25 9.57,73.11"/>
    </edge>
    <edge id=":gneJ4_5" function="internal">
        <lane id=":gneJ4_5_0" index="0" speed="7.87" length="10.17" shape="-2.54,72.94 0.05,74.29 2.09,77.29 3.21,80.73"/>
    </edge>
    <edge id=":gneJ4_8" function="internal">
        <lane id=":gneJ4_8_0" index="0" speed="7.87" length="3.97" shape="3.21,80.73 3.32,81.04 3.50,84.67"/>
    </edge>
    <edge id=":gneJ5_0" function="internal">
        <lane id=":gneJ5_0_0" index="0" speed="6.34" length="9.04" shape="43.61,79.38 41.51,78.01 39.52,77.70 37.64,78.43 35.87,80.20"/>
    </edge>
    <edge id=":gneJ5_1" function="internal">
        <lane id=":gneJ5_1_0" index="0" speed="13.89" length="16.42" shape="43.61,79.38 40.84,76.55 38.26,73.18 36.04,69.56 34.31,65.98"/>
    </edge>
    <edge id=":gneJ5_2" function="internal">
        <lane id=":gneJ5_2_0" index="0" speed="5.63" length="7.25" shape="43.61,79.38 42.15,77.34 41.26,74.64 41.29,72.73"/>
    </edge>
    <edge id=":gneJ5_6" function="internal">
        <lane id=":gneJ5_6_0" index="0" speed="5.63" length="2.42" shape="41.29,72.73 41.30,72.18 42.62,70.86"/>
    </edge>
    <edge id=":gneJ5_3" function="internal">
        <lane id=":gneJ5_3_0" index="0" speed="5.89" length="9.11" shape="30.44,72.08 33.03,71.59 34.54,70.40 34.96,68.54 34.31,65.98"/>
    </edge>
    <edge id=":gneJ5_4" function="internal">
        <lane id=":gneJ5_4_0" index="0" speed="13.89" length="12.26" shape="30.44,72.08 33.76,71.94 36.57,71.77 39.36,71.46 42.62,70.86"/>
    </edge>
    <edge id=":gneJ5_5" function="internal">
        <lane id=":gneJ5_5_0" index="0" speed="5.91" length="8.44" shape="30.44,72.08 32.93,72.92 35.10,75.10 36.21,77.60"/>
    </edge>
    <edge id=":gneJ5_7" function="internal">
        <lane id=":gneJ5_7_0" index="0" speed="5.91" length="2.66" shape="36.21,77.60 36.30,77.81 35.87,80.20"/>
    </edge>
    <edge id=":gneJ6_0" function="internal">
        <lane id=":gneJ6_0_0" index="0" speed="4.00" length="4.00" shape="62.63,66.59 63.78,66.19 64.30,65.60 64.17,64.83 63.41,63.88"/>
    </edge>
    <edge id=":gneJ7_0" function="internal">
        <lane id=":gneJ7_0_0" index="0" speed="4.09" length="1.46" shape="51.90,52.77 51.61,52.54 51.29,52.39 50.94,52.32 50.56,52.34"/>
    </edge>
    <edge id=":gneJ8_0" function="internal">
        <lane id=":gneJ8_0_0" index="0" speed="6.98" length="9.45" shape="32.23,60.95 30.91,58.65 29.23,57.20 27.18,56.60 24.75,56.86"/>
    </edge>
    <edge id=":gneJ8_1" function="internal">
        <lane id=":gneJ8_1_0" index="0" speed="10.57" length="11.61" shape="32.23,60.95 31.56,57.53 31.85,53.45 32.92,49.56"/>
    </edge>
    <edge id=":gneJ8_6" function="internal">
        <lane id=":gneJ8_6_0" index="0" speed="10.57" length="3.95" shape="32.92,49.56 32.97,49.41 34.79,46.09"/>
    </edge>
    <edge id=":gneJ8_2" function="internal">
        <lane id=":gneJ8_2_0" index="0" speed="13.89" length="11.41" shape="35.91,54.48 32.76,54.98 30.29,55.47 27.84,56.06 24.75,56.86"/>
    </edge>
    <edge id=":gneJ8_3" function="internal">
        <lane id=":gneJ8_3_0" index="0" speed="5.42" length="9.65" shape="35.91,54.48 34.31,53.65 33.65,51.27 33.84,48.40 34.79,46.09"/>
    </edge>
    <edge id=":gneJ8_4" function="internal">
        <lane id=":gneJ8_4_0" index="0" speed="5.97" length="9.09" shape="27.45,45.90 29.23,47.79 31.05,48.46 32.91,47.89 34.79,46.09"/>
    </edge>
    <edge id=":gneJ8_5" function="internal">
        <lane id=":gneJ8_5_0" index="0" speed="6.76" length="9.52" shape="27.45,45.90 28.45,48.77 28.28,52.17 27.09,55.00"/>
    </edge>
    <edge id=":gneJ8_7" function="internal">
        <lane id=":gneJ8_7_0" index="0" speed="6.76" length="3.01" shape="27.09,55.00 27.01,55.18 24.75,56.86"/>
    </edge>
    <edge id=":gneJ9_0" function="internal">
        <lane id=":gneJ9_0_0" index="0" speed="13.89" length="9.79" shape="16.16,59.11 13.41,59.44 11.52,58.91 9.64,57.92 6.90,56.86"/>
    </edge>
    <edge id=":gneJ9_1" function="internal">
        <lane id=":gneJ9_1_0" index="0" speed="5.96" length="9.42" shape="9.06,63.99 10.39,61.50 10.48,59.48 9.31,57.93 6.90,56.86"/>
    </edge>

    <edge id="gneE1" from="gneJ3" to="gneJ4" priority="-1" type="edgeType_0">
        <lane id="gneE1_0" index="0" speed="13.89" length="16.17" shape="-18.65,71.55 -2.54,72.94"/>
    </edge>
    <edge id="gneE10" from="gneJ12" to="gneJ13" priority="-1" type="edgeType_0">
        <lane id="gneE10_0" index="0" speed="13.89" length="28.43" shape="19.25,24.33 47.51,21.22"/>
    </edge>
    <edge id="gneE11" from="gneJ13" to="gneJ14" priority="-1" type="edgeType_0">
        <lane id="gneE11_0" index="0" speed="13.89" length="24.33" shape="66.02,21.03 90.28,22.79"/>
    </edge>
    <edge id="gneE12" from="gneJ14" to="gneJ15" priority="-1" type="edgeType_0">
        <lane id="gneE12_0" index="0" speed="13.89" length="18.24" shape="91.71,23.97 96.45,41.58"/>
    </edge>
    <edge id="gneE13" from="gneJ15" to="gneJ16" priority="-1" type="edgeType_0">
        <lane id="gneE13_0" index="0" speed="13.89" length="24.14" shape="99.02,59.58 99.54,83.71"/>
    </edge>
    <edge id="gneE14" from="gneJ16" to="gneJ17" priority="-1" type="edgeType_0">
        <lane id="gneE14_0" index="0" speed="13.89" length="27.31" shape="98.37,85.29 72.09,92.71"/>
    </edge>
    <edge id="gneE15" from="gneJ17" to="gneJ18" priority="-1" type="edgeType_0">
        <lane id="gneE15_0" index="0" speed="13.89" length="22.74" shape="53.22,94.86 30.51,93.64"/>
    </edge>
    <edge id="gneE16" from="gneJ18" to="gneJ19" priority="-1" type="edgeType_0">
        <lane id="gneE16_0" index="0" speed="13.89" length="36.81" shape="19.09,93.85 -17.60,96.77"/>
    </edge>
    <edge id="gneE17" from="gneJ19" to="gneJ3" priority="-1" type="edgeType_0">
        <lane id="gneE17_0" index="0" speed="13.89" length="22.05" shape="-19.32,95.25 -20.38,73.22"/>
    </edge>
    <edge id="gneE18" from="gneJ20" to="gneJ21" priority="-1" type="edgeType_0">
        <lane id="gneE18_0" index="0" speed="13.89" length="106.81" shape="-0.88,96.10 -51.85,2.24"/>
    </edge>
    <edge id="gneE19" from="gneJ21" to="gneJ22" priority="-1" type="edgeType_0">
        <lane id="gneE19_0" index="0" speed="13.89" length="59.30" shape="-53.11,-12.41 6.18,-13.70"/>
    </edge>
    <edge id="gneE2" from="gneJ4" to="gneJ5" priority="-1" type="edgeType_0">
        <lane id="gneE2_0" index="0" speed="13.89" length="20.89" shape="9.57,73.11 30.44,72.08"/>
    </edge>
    <edge id="gneE20" from="gneJ22" to="gneJ12" priority="-1" type="edgeType_0">
        <lane id="gneE20_0" index="0" speed="13.89" length="31.39" shape="7.80,-12.34 12.39,18.72"/>
    </edge>
    <edge id="gneE21" from="gneJ12" to="gneJ8" priority="-1" type="edgeType_0">
        <lane id="gneE21_0" index="0" speed="13.89" length="18.96" shape="16.51,30.41 27.45,45.90"/>
    </edge>
    <edge id="gneE22" from="gneJ8" to="gneJ13" priority="-1" type="edgeType_0">
        <lane id="gneE22_0" index="0" speed="13.89" length="25.14" shape="34.79,46.09 50.35,26.35"/>
    </edge>
    <edge id="gneE23" from="gneJ13" to="gneJ15" priority="-1" type="edgeType_0">
        <lane id="gneE23_0" index="0" speed="13.89" length="33.39" shape="64.32,25.82 91.74,44.88"/>
    </edge>
    <edge id="gneE24" from="gneJ15" to="gneJ17" priority="-1" type="edgeType_0">
        <lane id="gneE24_0" index="0" speed="13.89" length="39.06" shape="93.58,57.73 69.07,88.14"/>
    </edge>
    <edge id="gneE25" from="gneJ17" to="gneJ5" priority="-1" type="edgeType_0">
        <lane id="gneE25_0" index="0" speed="13.89" length="15.59" shape="55.35,89.64 43.61,79.38"/>
    </edge>
    <edge id="gneE26" from="gneJ5" to="gneJ18" priority="-1" type="edgeType_0">
        <lane id="gneE26_0" index="0" speed="13.89" length="11.98" shape="35.87,80.20 28.72,89.80"/>
    </edge>
    <edge id="gneE27" from="gneJ18" to="gneJ4" priority="-1" type="edgeType_0">
        <lane id="gneE27_0" index="0" speed="13.89" length="13.13" shape="20.23,89.96 9.75,82.04"/>
    </edge>
    <edge id="gneE28" from="gneJ4" to="gneJ20" priority="-1" type="edgeType_0">
        <lane id="gneE28_0" index="0" speed="13.89" length="10.95" shape="3.50,84.67 2.11,95.54"/>
    </edge>
    <edge id="gneE29" from="gneJ4" to="gneJ9" priority="-1" type="edgeType_0">
        <lane id="gneE29_0" index="0" speed="13.89" length="4.35" shape="6.53,67.53 9.06,63.99"/>
    </edge>
    <edge id="gneE3" from="gneJ5" to="gneJ6" priority="-1" type="edgeType_0">
        <lane id="gneE3_0" index="0" speed="13.89" length="20.46" shape="42.62,70.86 62.63,66.59"/>
    </edge>
    <edge id="gneE30" from="gneJ5" to="gneJ8" priority="-1" type="edgeType_0">
        <lane id="gneE30_0" index="0" speed="13.89" length="5.44" shape="34.31,65.98 32.23,60.95"/>
    </edge>
    <edge id="gneE31" from="gneJ11" to="gneJ21" priority="-1" type="edgeType_0">
        <lane id="gneE31_0" index="0" speed="13.89" length="56.86" shape="-6.47,37.98 -48.33,-0.51"/>
    </edge>
    <edge id="gneE4" from="gneJ6" to="gneJ7" priority="-1" type="edgeType_0">
        <lane id="gneE4_0" index="0" speed="13.89" length="15.99" shape="63.41,63.88 51.90,52.77"/>
    </edge>
    <edge id="gneE5" from="gneJ7" to="gneJ8" priority="-1" type="edgeType_0">
        <lane id="gneE5_0" index="0" speed="13.89" length="14.81" shape="50.56,52.34 35.91,54.48"/>
    </edge>
    <edge id="gneE6" from="gneJ8" to="gneJ9" priority="-1" type="edgeType_0">
        <lane id="gneE6_0" index="0" speed="13.89" length="8.89" shape="24.75,56.86 16.16,59.11"/>
    </edge>
    <edge id="gneE7" from="gneJ9" to="gneJ10" priority="-1" type="edgeType_0">
        <lane id="gneE7_0" index="0" speed="13.89" length="10.96" shape="6.90,56.86 -3.66,53.96"/>
    </edge>
    <edge id="gneE8" from="gneJ10" to="gneJ11" priority="-1" type="edgeType_0">
        <lane id="gneE8_0" index="0" speed="13.89" length="8.33" shape="-4.82,52.18 -3.61,43.94"/>
    </edge>
    <edge id="gneE9" from="gneJ11" to="gneJ12" priority="-1" type="edgeType_0">
        <lane id="gneE9_0" index="0" speed="13.89" length="13.19" shape="-1.13,37.77 8.11,28.36"/>
    </edge>

    <junction id="gneJ10" type="priority" x="-3.24" y="52.41" incLanes="gneE7_0" intLanes=":gneJ10_0_0" shape="-4.09,55.50 -3.24,52.41 -6.41,51.95 -6.33,53.59 -6.03,54.24 -5.56,54.77 -4.91,55.19">
        <request index="0" response="0" foes="0" cont="0"/>
    </junction>
    <junction id="gneJ11" type="priority" x="-1.47" y="40.40" incLanes="gneE8_0" intLanes=":gneJ11_0_0 :gneJ11_1_0" shape="0.01,38.89 -2.27,36.65 -3.31,37.37 -3.83,37.48 -4.35,37.42 -4.87,37.19 -5.39,36.80 -7.55,39.16 -6.10,40.75 -5.63,41.52 -5.32,42.27 -5.17,43.00 -5.19,43.70 -2.03,44.17 -1.76,42.01 -1.60,41.24 -1.31,40.53 -0.80,39.79">
        <request index="0" response="00" foes="00" cont="0"/>
        <request index="1" response="00" foes="00" cont="0"/>
    </junction>
    <junction id="gneJ12" type="priority" x="11.96" y="26.74" incLanes="gneE20_0 gneE9_0" intLanes=":gneJ12_0_0 :gneJ12_1_0 :gneJ12_2_0 :gneJ12_4_0" shape="15.20,31.33 17.81,29.49 17.00,27.69 17.10,27.02 17.54,26.50 18.31,26.13 19.42,25.92 19.07,22.74 16.55,22.48 15.60,21.92 14.85,21.06 14.31,19.92 13.97,18.49 10.81,18.96 10.63,21.57 10.13,22.93 9.35,24.33 8.30,25.77 6.97,27.24 9.25,29.49 11.12,28.47 12.09,28.57 13.10,29.08 14.13,30.00">
        <request index="0" response="0000" foes="0100" cont="0"/>
        <request index="1" response="0000" foes="1100" cont="0"/>
        <request index="2" response="0011" foes="0011" cont="0"/>
        <request index="3" response="0010" foes="0010" cont="1"/>
    </junction>
    <junction id="gneJ13" type="priority" x="55.89" y="21.91" incLanes="gneE10_0 gneE22_0" intLanes=":gneJ13_0_0 :gneJ13_1_0 :gneJ13_4_0 :gneJ13_5_0" shape="63.41,27.14 65.24,24.51 65.90,22.63 66.13,19.44 62.13,19.15 59.17,18.96 56.72,18.90 54.28,18.97 51.32,19.21 47.33,19.63 47.68,22.81 49.51,22.91 49.91,23.24 49.98,23.76 49.71,24.46 49.10,25.36 51.61,27.34 53.13,25.82 54.82,24.90 56.70,24.57 58.76,24.84 60.99,25.69">
        <request index="0" response="0000" foes="0100" cont="0"/>
        <request index="1" response="0000" foes="1100" cont="0"/>
        <request index="2" response="0011" foes="0011" cont="1"/>
        <request index="3" response="0010" foes="0010" cont="1"/>
    </junction>
    <junction id="gneJ14" type="priority" x="90.16" y="24.38" incLanes="gneE11_0" intLanes=":gneJ14_0_0" shape="90.16,24.38 93.26,23.55 92.67,22.31 92.24,21.86 91.72,21.52 91.10,21.30 90.40,21.19">
        <request index="0" response="0" foes="0" cont="0"/>
    </junction>
    <junction id="gneJ15" type="priority" x="97.23" y="50.65" incLanes="gneE12_0 gneE23_0" intLanes=":gneJ15_0_0 :gneJ15_1_0 :gneJ15_4_0 :gneJ15_5_0" shape="97.42,59.61 100.62,59.55 100.53,55.58 100.39,52.65 100.14,50.23 99.70,47.85 99.01,44.99 97.99,41.16 94.90,41.99 95.12,43.88 94.86,44.32 94.37,44.41 93.63,44.16 92.66,43.57 90.83,46.20 92.65,47.73 93.84,49.35 94.41,51.05 94.35,52.85 93.65,54.74 92.34,56.72 94.83,58.73 96.23,57.44 96.73,57.39 97.10,57.74 97.33,58.48">
        <request index="0" response="0000" foes="0100" cont="0"/>
        <request index="1" response="0000" foes="1100" cont="0"/>
        <request index="2" response="0011" foes="0011" cont="1"/>
        <request index="3" response="0010" foes="0010" cont="1"/>
    </junction>
    <junction id="gneJ16" type="priority" x="97.94" y="83.75" incLanes="gneE13_0" intLanes=":gneJ16_0_0" shape="101.14,83.68 97.94,83.75 98.81,86.83 100.13,86.18 100.58,85.70 100.90,85.13 101.09,84.45">
        <request index="0" response="0" foes="0" cont="0"/>
    </junction>
    <junction id="gneJ17" type="priority" x="62.49" y="93.76" incLanes="gneE14_0 gneE24_0" intLanes=":gneJ17_0_0 :gneJ17_1_0 :gneJ17_4_0 :gneJ17_5_0" shape="72.53,94.25 71.66,91.17 69.80,91.43 69.40,91.20 69.35,90.75 69.66,90.06 70.32,89.14 67.83,87.13 66.02,89.01 64.18,90.22 62.30,90.77 60.37,90.66 58.41,89.88 56.40,88.44 54.29,90.85 55.52,92.28 55.55,92.77 55.20,93.09 54.45,93.26 53.31,93.26 53.14,96.46 57.31,96.66 60.41,96.71 62.96,96.54 65.49,96.12 68.51,95.37">
        <request index="0" response="0000" foes="0100" cont="0"/>
        <request index="1" response="0000" foes="1100" cont="0"/>
        <request index="2" response="0011" foes="0011" cont="1"/>
        <request index="3" response="0010" foes="0010" cont="1"/>
    </junction>
    <junction id="gneJ18" type="priority" x="25.27" y="91.76" incLanes="gneE15_0 gneE26_0" intLanes=":gneJ18_0_0 :gneJ18_1_0 :gneJ18_4_0 :gneJ18_5_0" shape="30.43,95.24 30.60,92.04 29.87,91.86 29.70,91.68 29.67,91.44 29.77,91.13 30.00,90.76 27.43,88.85 25.78,90.12 24.79,90.26 23.70,90.06 22.50,89.54 21.19,88.68 19.26,91.23 19.76,91.75 19.79,91.94 19.66,92.09 19.39,92.19 18.97,92.26 19.22,95.45 21.60,95.25 23.36,95.13 24.82,95.06 26.28,95.06 28.04,95.12">
        <request index="0" response="0000" foes="0100" cont="0"/>
        <request index="1" response="0000" foes="1100" cont="0"/>
        <request index="2" response="0011" foes="0011" cont="1"/>
        <request index="3" response="0010" foes="0010" cont="1"/>
    </junction>
    <junction id="gneJ19" type="priority" x="-17.73" y="95.17" incLanes="gneE16_0" intLanes=":gneJ19_0_0" shape="-17.47,98.36 -17.73,95.17 -20.92,95.32 -20.47,97.13 -19.98,97.73 -19.32,98.14 -18.48,98.35">
        <request index="0" response="0" foes="0" cont="0"/>
    </junction>
    <junction id="gneJ20" type="priority" x="0.53" y="95.33" incLanes="gneE28_0" intLanes=":gneJ20_0_0" shape="3.70,95.74 0.53,95.33 -2.28,96.86 -0.80,99.25 0.48,100.61 1.58,100.94 2.48,100.23 3.19,98.50">
        <request index="0" response="0" foes="0" cont="0"/>
    </junction>
    <junction id="gneJ21" type="priority" x="-57.07" y="-10.72" incLanes="gneE18_0 gneE31_0" intLanes=":gneJ21_0_0 :gneJ21_2_0" shape="-53.26,3.00 -50.45,1.48 -49.41,0.67 -47.24,-1.69 -50.14,-4.45 -52.26,-6.72 -53.61,-8.48 -54.20,-9.76 -54.02,-10.53 -53.07,-10.81 -53.14,-14.01 -55.71,-13.48 -57.26,-12.03 -57.79,-9.65 -57.30,-6.36 -55.79,-2.14">
        <request index="0" response="00" foes="10" cont="0"/>
        <request index="1" response="01" foes="01" cont="1"/>
    </junction>
    <junction id="gneJ22" type="priority" x="6.22" y="-12.10" incLanes="gneE19_0" intLanes=":gneJ22_0_0" shape="6.22,-12.10 9.38,-12.57 8.84,-14.11 8.37,-14.65 7.76,-15.02 7.02,-15.24 6.15,-15.30">
        <request index="0" response="0" foes="0" cont="0"/>
    </junction>
    <junction id="gneJ3" type="priority" x="-18.79" y="73.14" incLanes="gneE17_0" intLanes=":gneJ3_0_0" shape="-21.98,73.30 -18.79,73.14 -18.51,69.96 -20.52,70.19 -21.20,70.64 -21.68,71.30 -21.94,72.19">
        <request index="0" response="0" foes="0" cont="0"/>
    </junction>
    <junction id="gneJ4" type="priority" x="3.12" y="75.03" incLanes="gneE27_0 gneE1_0" intLanes=":gneJ4_0_0 :gneJ4_6_0 :gneJ4_7_0 :gneJ4_3_0 :gneJ4_4_0 :gneJ4_8_0" shape="8.79,83.32 10.72,80.77 8.58,79.00 7.22,77.54 6.65,76.38 6.87,75.52 7.87,74.97 9.65,74.71 9.49,71.51 7.53,71.26 7.08,70.85 6.98,70.24 7.23,69.44 7.83,68.46 5.23,66.59 2.76,69.38 1.50,70.33 0.21,70.97 -1.09,71.31 -2.40,71.34 -2.68,74.53 0.41,75.86 1.37,77.27 1.94,79.17 2.12,81.57 1.92,84.47 5.09,84.88 5.73,82.94 6.27,82.50 6.96,82.42 7.80,82.69">
        <request index="0" response="000000" foes="100000" cont="0"/>
        <request index="1" response="011000" foes="011000" cont="1"/>
        <request index="2" response="010000" foes="010000" cont="1"/>
        <request index="3" response="000000" foes="000010" cont="0"/>
        <request index="4" response="000000" foes="000110" cont="0"/>
        <request index="5" response="000001" foes="000001" cont="1"/>
    </junction>
    <junction id="gneJ5" type="priority" x="39.05" y="73.26" incLanes="gneE25_0 gneE2_0" intLanes=":gneJ5_0_0 :gneJ5_1_0 :gneJ5_6_0 :gneJ5_3_0 :gneJ5_4_0 :gneJ5_7_0" shape="42.56,80.58 44.66,78.17 43.05,76.65 41.98,75.35 41.43,74.28 41.41,73.44 41.92,72.82 42.96,72.43 42.29,69.30 39.57,69.29 38.42,68.80 37.40,67.98 36.53,66.84 35.79,65.37 32.83,66.59 33.23,68.67 32.97,69.41 32.41,69.97 31.54,70.32 30.36,70.49 30.52,73.68 33.00,73.72 34.76,74.11 35.80,74.86 36.12,75.97 35.71,77.43 34.59,79.24 37.15,81.16 38.82,79.67 39.70,79.41 40.62,79.48 41.57,79.87">
        <request index="0" response="000000" foes="100000" cont="0"/>
        <request index="1" response="010000" foes="011000" cont="0"/>
        <request index="2" response="010000" foes="010000" cont="1"/>
        <request index="3" response="000010" foes="000010" cont="0"/>
        <request index="4" response="000000" foes="000110" cont="0"/>
        <request index="5" response="000001" foes="000001" cont="1"/>
    </junction>
    <junction id="gneJ6" type="priority" x="68.85" y="66.90" incLanes="gneE3_0" intLanes=":gneJ6_0_0" shape="64.52,62.73 62.30,65.03 62.96,68.16 65.75,67.00 66.29,66.17 66.27,65.19 65.68,64.04">
        <request index="0" response="0" foes="0" cont="0"/>
    </junction>
    <junction id="gneJ7" type="priority" x="51.88" y="50.53" incLanes="gneE4_0" intLanes=":gneJ7_0_0" shape="50.79,53.92 53.01,51.62 52.21,51.04 51.78,50.86 51.32,50.75 50.84,50.72 50.33,50.76">
        <request index="0" response="0" foes="0" cont="0"/>
    </junction>
    <junction id="gneJ8" type="priority" x="30.92" y="53.59" incLanes="gneE30_0 gneE5_0 gneE21_0" intLanes=":gneJ8_0_0 :gneJ8_6_0 :gneJ8_2_0 :gneJ8_3_0 :gneJ8_4_0 :gneJ8_7_0" shape="30.75,61.56 33.71,60.34 33.30,58.22 33.55,57.42 34.11,56.80 34.97,56.34 36.14,56.06 35.67,52.90 33.60,52.56 33.39,51.79 33.73,50.62 34.61,49.05 36.05,47.08 33.54,45.10 31.90,46.48 31.10,46.64 30.31,46.44 29.53,45.89 28.75,44.98 26.14,46.82 27.42,48.94 28.06,50.77 28.08,52.33 27.47,53.60 26.22,54.60 24.35,55.31 25.16,58.41 27.50,58.31 28.49,58.69 29.36,59.36 30.12,60.32">
        <request index="0" response="000000" foes="100100" cont="0"/>
        <request index="1" response="010000" foes="011100" cont="1"/>